


 37 44  0  0  0  0  0  0  0  0999 V2000
  -13.5135   15.5978  -16.7526 O   0  0  0  0  0  0  0  0  0  0  0  0
  -14.0276   16.6855  -16.9176 C   0  0  0  0  0  0  0  0  0  0  0  0
  -13.9236   17.4476  -18.0604 N   0  0  0  0  0  0  0  0  0  0  0  0
  -14.6216   18.7024  -17.9835 C   0  0  0  0  0  0  0  0  0  0  0  0
  -15.2284   18.6746  -16.6096 C   0  0  0  0  0  0  0  0  0  0  0  0
  -16.0170   19.6587  -15.9735 C   0  0  0  0  0  0  0  0  0  0  0  0
  -16.4566   19.3519  -14.7057 C   0  0  0  0  0  0  0  0  0  0  0  0
  -17.2870   20.3504  -14.2167 N   0  0  0  0  0  0  0  0  0  0  0  0
  -17.2347   21.4079  -15.1181 C   0  0  0  0  0  0  0  0  0  0  0  0
  -17.7876   22.6992  -15.0640 C   0  0  0  0  0  0  0  0  0  0  0  0
  -17.6130   23.5493  -16.1595 C   0  0  0  0  0  0  0  0  0  0  0  0
  -16.9080   23.1343  -17.2822 C   0  0  0  0  0  0  0  0  0  0  0  0
  -16.3460   21.8557  -17.3330 C   0  0  0  0  0  0  0  0  0  0  0  0
  -16.4976   20.9745  -16.2401 C   0  0  0  0  0  0  0  0  0  0  0  0
  -18.1765   20.2341  -13.0207 C   0  0  0  0  0  0  0  0  0  0  0  0
  -18.0962   18.8673  -12.5876 O   0  0  0  0  0  0  0  0  0  0  0  0
  -16.8330   18.6545  -11.9463 C   0  0  0  0  0  0  0  0  0  0  0  0
  -16.2116   17.6473  -12.7299 N   0  0  0  0  0  0  0  0  0  0  0  0
  -15.9837   18.0096  -14.0288 C   0  0  0  0  0  0  0  0  0  0  0  0
  -15.1995   17.0773  -14.6571 C   0  0  0  0  0  0  0  0  0  0  0  0
  -14.8570   17.4365  -15.9682 C   0  0  0  0  0  0  0  0  0  0  0  0
  -14.9984   16.0443  -13.6790 C   0  0  0  0  0  0  0  0  0  0  0  0
  -14.3070   14.8145  -13.6836 C   0  0  0  0  0  0  0  0  0  0  0  0
  -14.2749   14.0250  -12.5286 C   0  0  0  0  0  0  0  0  0  0  0  0
  -14.9144   14.4408  -11.3649 C   0  0  0  0  0  0  0  0  0  0  0  0
  -15.6046   15.6548  -11.3160 C   0  0  0  0  0  0  0  0  0  0  0  0
  -15.6386   16.4389  -12.4773 C   0  0  0  0  0  0  0  0  0  0  0  0
  -17.1494   18.8170  -10.4908 C   0  0  0  0  0  0  0  0  0  0  0  0
  -17.8196   20.2504  -10.3787 C   0  0  0  0  0  0  0  0  0  0  0  0
  -17.7747   21.1137  -11.7614 C   0  0  0  0  0  0  0  0  0  0  0  0
  -19.6486   20.4015  -13.4326 C   0  0  0  0  0  0  0  0  0  0  0  0
  -13.3894   17.1196  -18.8533 H   0  0  0  0  0  0  0  0  0  0  0  0
  -19.1950   20.1594   -9.8510 N   0  0  0  0  0  0  0  0  0  0  0  0
  -19.2914   20.4629   -8.4307 C   0  0  0  0  0  0  0  0  0  0  0  0
  -19.5831   19.2332  -10.0366 H   0  0  0  0  0  0  0  0  0  0  0  0
  -18.5598   22.3184  -11.7100 O   0  0  0  0  0  0  0  0  0  0  0  0
  -17.8049   23.4932  -11.4509 C   0  0  0  0  0  0  0  0  0  0  0  0
  1  2  2  0  0  0
  2  3  1  0  0  0
  3  4  1  0  0  0
  4  5  1  0  0  0
  5  6  2  0  0  0
  6  7  1  0  0  0
  7  8  1  0  0  0
  8  9  1  0  0  0
  9 10  2  0  0  0
 10 11  1  0  0  0
 11 12  2  0  0  0
 12 13  1  0  0  0
 13 14  2  0  0  0
  8 15  1  0  0  0
 15 16  1  0  0  0
 16 17  1  0  0  0
 17 18  1  0  0  0
 18 19  1  0  0  0
 19 20  1  0  0  0
 20 21  2  0  0  0
 20 22  1  0  0  0
 22 23  2  0  0  0
 23 24  1  0  0  0
 24 25  2  0  0  0
 25 26  1  0  0  0
 26 27  2  0  0  0
 17 28  1  0  0  0
 28 29  1  0  0  0
 29 33  1  0  0  0
 33 34  1  0  0  0
 29 30  1  0  0  0
 30 36  1  0  0  0
 36 37  1  0  0  0
 15 31  1  0  0  0
 14  9  1  0  0  0
 14  6  1  0  0  0
 19  7  2  0  0  0
 21  5  1  0  0  0
 21  2  1  0  0  0
 27 18  1  0  0  0
 27 22  1  0  0  0
 30 15  1  0  0  0
  3 32  1  0  0  0
 33 35  1  0  0  0
M  END
> <minimizedAffinity>
-11.20162

$$$$



 37 44  0  0  0  0  0  0  0  0999 V2000
  -13.7943   13.5393  -13.3859 O   0  0  0  0  0  0  0  0  0  0  0  0
  -14.3992   14.4069  -12.7891 C   0  0  0  0  0  0  0  0  0  0  0  0
  -14.8696   14.3024  -11.4986 N   0  0  0  0  0  0  0  0  0  0  0  0
  -15.5636   15.4753  -11.0400 C   0  0  0  0  0  0  0  0  0  0  0  0
  -15.4857   16.4036  -12.2183 C   0  0  0  0  0  0  0  0  0  0  0  0
  -16.0138   17.7068  -12.3510 C   0  0  0  0  0  0  0  0  0  0  0  0
  -15.7708   18.3364  -13.5507 C   0  0  0  0  0  0  0  0  0  0  0  0
  -16.2611   19.6345  -13.5346 N   0  0  0  0  0  0  0  0  0  0  0  0
  -16.9961   19.7827  -12.3636 C   0  0  0  0  0  0  0  0  0  0  0  0
  -17.7918   20.8437  -11.8977 C   0  0  0  0  0  0  0  0  0  0  0  0
  -18.3812   20.7350  -10.6351 C   0  0  0  0  0  0  0  0  0  0  0  0
  -18.1901   19.6043   -9.8510 C   0  0  0  0  0  0  0  0  0  0  0  0
  -17.4103   18.5424  -10.3175 C   0  0  0  0  0  0  0  0  0  0  0  0
  -16.8065   18.6171  -11.5918 C   0  0  0  0  0  0  0  0  0  0  0  0
  -15.9282   20.7026  -14.5263 C   0  0  0  0  0  0  0  0  0  0  0  0
  -14.9159   20.1560  -15.3858 O   0  0  0  0  0  0  0  0  0  0  0  0
  -15.5201   19.2087  -16.2744 C   0  0  0  0  0  0  0  0  0  0  0  0
  -14.8574   17.9879  -15.9826 N   0  0  0  0  0  0  0  0  0  0  0  0
  -15.0302   17.5503  -14.6985 C   0  0  0  0  0  0  0  0  0  0  0  0
  -14.5443   16.2766  -14.5554 C   0  0  0  0  0  0  0  0  0  0  0  0
  -14.7720   15.7381  -13.2813 C   0  0  0  0  0  0  0  0  0  0  0  0
  -13.9764   15.9522  -15.8347 C   0  0  0  0  0  0  0  0  0  0  0  0
  -13.3135   14.8190  -16.3513 C   0  0  0  0  0  0  0  0  0  0  0  0
  -12.8937   14.8014  -17.6862 C   0  0  0  0  0  0  0  0  0  0  0  0
  -13.1275   15.8907  -18.5196 C   0  0  0  0  0  0  0  0  0  0  0  0
  -13.7863   17.0298  -18.0496 C   0  0  0  0  0  0  0  0  0  0  0  0
  -14.1994   17.0445  -16.7103 C   0  0  0  0  0  0  0  0  0  0  0  0
  -15.7673   20.0064  -17.5184 C   0  0  0  0  0  0  0  0  0  0  0  0
  -16.6312   21.2478  -17.0396 C   0  0  0  0  0  0  0  0  0  0  0  0
  -17.1091   21.1624  -15.4828 C   0  0  0  0  0  0  0  0  0  0  0  0
  -15.2210   21.8764  -13.8285 C   0  0  0  0  0  0  0  0  0  0  0  0
  -14.7245   13.4578  -10.9626 H   0  0  0  0  0  0  0  0  0  0  0  0
  -15.9385   22.5215  -17.3159 N   0  0  0  0  0  0  0  0  0  0  0  0
  -16.2484   23.0770  -18.6250 C   0  0  0  0  0  0  0  0  0  0  0  0
  -14.9289   22.4020  -17.2181 H   0  0  0  0  0  0  0  0  0  0  0  0
  -17.7112   22.3773  -15.0012 O   0  0  0  0  0  0  0  0  0  0  0  0
  -18.6521   22.9535  -15.8955 C   0  0  0  0  0  0  0  0  0  0  0  0
  1  2  2  0  0  0
  2  3  1  0  0  0
  3  4  1  0  0  0
  4  5  1  0  0  0
  5  6  2  0  0  0
  6  7  1  0  0  0
  7  8  1  0  0  0
  8  9  1  0  0  0
  9 10  2  0  0  0
 10 11  1  0  0  0
 11 12  2  0  0  0
 12 13  1  0  0  0
 13 14  2  0  0  0
  8 15  1  0  0  0
 15 16  1  0  0  0
 16 17  1  0  0  0
 17 18  1  0  0  0
 18 19  1  0  0  0
 19 20  1  0  0  0
 20 21  2  0  0  0
 20 22  1  0  0  0
 22 23  2  0  0  0
 23 24  1  0  0  0
 24 25  2  0  0  0
 25 26  1  0  0  0
 26 27  2  0  0  0
 17 28  1  0  0  0
 28 29  1  0  0  0
 29 33  1  0  0  0
 33 34  1  0  0  0
 29 30  1  0  0  0
 30 36  1  0  0  0
 36 37  1  0  0  0
 15 31  1  0  0  0
 14  9  1  0  0  0
 14  6  1  0  0  0
 19  7  2  0  0  0
 21  5  1  0  0  0
 21  2  1  0  0  0
 27 18  1  0  0  0
 27 22  1  0  0  0
 30 15  1  0  0  0
  3 32  1  0  0  0
 33 35  1  0  0  0
M  END
> <minimizedAffinity>
-10.97652

$$$$



 37 44  0  0  0  0  0  0  0  0999 V2000
  -15.8452   15.2961  -10.2725 O   0  0  0  0  0  0  0  0  0  0  0  0
  -15.5658   15.5053  -11.4356 C   0  0  0  0  0  0  0  0  0  0  0  0
  -14.9098   14.6230  -12.2656 N   0  0  0  0  0  0  0  0  0  0  0  0
  -14.6947   15.1303  -13.5937 C   0  0  0  0  0  0  0  0  0  0  0  0
  -15.3161   16.4970  -13.5445 C   0  0  0  0  0  0  0  0  0  0  0  0
  -15.3904   17.4696  -14.5660 C   0  0  0  0  0  0  0  0  0  0  0  0
  -16.0418   18.6374  -14.2401 C   0  0  0  0  0  0  0  0  0  0  0  0
  -16.1263   19.4786  -15.3406 N   0  0  0  0  0  0  0  0  0  0  0  0
  -15.3523   18.9160  -16.3495 C   0  0  0  0  0  0  0  0  0  0  0  0
  -14.9989   19.3961  -17.6225 C   0  0  0  0  0  0  0  0  0  0  0  0
  -14.2381   18.5762  -18.4604 C   0  0  0  0  0  0  0  0  0  0  0  0
  -13.8348   17.3117  -18.0505 C   0  0  0  0  0  0  0  0  0  0  0  0
  -14.1736   16.8373  -16.7803 C   0  0  0  0  0  0  0  0  0  0  0  0
  -14.9352   17.6434  -15.9062 C   0  0  0  0  0  0  0  0  0  0  0  0
  -17.0070   20.6817  -15.4505 C   0  0  0  0  0  0  0  0  0  0  0  0
  -17.8230   20.6957  -14.2689 O   0  0  0  0  0  0  0  0  0  0  0  0
  -17.0228   21.1075  -13.1542 C   0  0  0  0  0  0  0  0  0  0  0  0
  -17.0801   20.0061  -12.2606 N   0  0  0  0  0  0  0  0  0  0  0  0
  -16.5577   18.8477  -12.7658 C   0  0  0  0  0  0  0  0  0  0  0  0
  -16.4558   17.8978  -11.7829 C   0  0  0  0  0  0  0  0  0  0  0  0
  -15.8443   16.7143  -12.2194 C   0  0  0  0  0  0  0  0  0  0  0  0
  -17.0233   18.5127  -10.6149 C   0  0  0  0  0  0  0  0  0  0  0  0
  -17.2350   18.0821   -9.2882 C   0  0  0  0  0  0  0  0  0  0  0  0
  -17.8021   18.9534   -8.3513 C   0  0  0  0  0  0  0  0  0  0  0  0
  -18.1574   20.2499   -8.7099 C   0  0  0  0  0  0  0  0  0  0  0  0
  -17.9586   20.7181  -10.0114 C   0  0  0  0  0  0  0  0  0  0  0  0
  -17.3957   19.8396  -10.9472 C   0  0  0  0  0  0  0  0  0  0  0  0
  -17.3075   22.5744  -13.0441 C   0  0  0  0  0  0  0  0  0  0  0  0
  -16.9642   23.1631  -14.4766 C   0  0  0  0  0  0  0  0  0  0  0  0
  -16.2702   22.0876  -15.4869 C   0  0  0  0  0  0  0  0  0  0  0  0
  -18.0203   20.4983  -16.5926 C   0  0  0  0  0  0  0  0  0  0  0  0
  -14.6180   13.7160  -11.9282 H   0  0  0  0  0  0  0  0  0  0  0  0
  -18.1480   23.7902  -15.0962 N   0  0  0  0  0  0  0  0  0  0  0  0
  -18.0908   25.2445  -15.1129 C   0  0  0  0  0  0  0  0  0  0  0  0
  -18.9988   23.4803  -14.6238 H   0  0  0  0  0  0  0  0  0  0  0  0
  -16.1517   22.5659  -16.8388 O   0  0  0  0  0  0  0  0  0  0  0  0
  -15.4667   23.8042  -16.9590 C   0  0  0  0  0  0  0  0  0  0  0  0
  1  2  2  0  0  0
  2  3  1  0  0  0
  3  4  1  0  0  0
  4  5  1  0  0  0
  5  6  2  0  0  0
  6  7  1  0  0  0
  7  8  1  0  0  0
  8  9  1  0  0  0
  9 10  2  0  0  0
 10 11  1  0  0  0
 11 12  2  0  0  0
 12 13  1  0  0  0
 13 14  2  0  0  0
  8 15  1  0  0  0
 15 16  1  0  0  0
 16 17  1  0  0  0
 17 18  1  0  0  0
 18 19  1  0  0  0
 19 20  1  0  0  0
 20 21  2  0  0  0
 20 22  1  0  0  0
 22 23  2  0  0  0
 23 24  1  0  0  0
 24 25  2  0  0  0
 25 26  1  0  0  0
 26 27  2  0  0  0
 17 28  1  0  0  0
 28 29  1  0  0  0
 29 33  1  0  0  0
 33 34  1  0  0  0
 29 30  1  0  0  0
 30 36  1  0  0  0
 36 37  1  0  0  0
 15 31  1  0  0  0
 14  9  1  0  0  0
 14  6  1  0  0  0
 19  7  2  0  0  0
 21  5  1  0  0  0
 21  2  1  0  0  0
 27 18  1  0  0  0
 27 22  1  0  0  0
 30 15  1  0  0  0
  3 32  1  0  0  0
 33 35  1  0  0  0
M  END
> <minimizedAffinity>
-10.73957

$$$$



 37 44  0  0  0  0  0  0  0  0999 V2000
  -17.5526   17.2976   -8.1163 O   0  0  0  0  0  0  0  0  0  0  0  0
  -17.6326   18.3905   -8.6396 C   0  0  0  0  0  0  0  0  0  0  0  0
  -18.1372   19.5231   -8.0393 N   0  0  0  0  0  0  0  0  0  0  0  0
  -18.1266   20.6818   -8.8908 C   0  0  0  0  0  0  0  0  0  0  0  0
  -17.5256   20.1651  -10.1669 C   0  0  0  0  0  0  0  0  0  0  0  0
  -17.2825   20.8602  -11.3721 C   0  0  0  0  0  0  0  0  0  0  0  0
  -16.6980   20.1297  -12.3818 C   0  0  0  0  0  0  0  0  0  0  0  0
  -16.4313   20.9335  -13.4811 N   0  0  0  0  0  0  0  0  0  0  0  0
  -17.0229   22.1688  -13.2414 C   0  0  0  0  0  0  0  0  0  0  0  0
  -17.1578   23.3050  -14.0580 C   0  0  0  0  0  0  0  0  0  0  0  0
  -17.7647   24.4454  -13.5245 C   0  0  0  0  0  0  0  0  0  0  0  0
  -18.2284   24.4631  -12.2151 C   0  0  0  0  0  0  0  0  0  0  0  0
  -18.1073   23.3304  -11.4055 C   0  0  0  0  0  0  0  0  0  0  0  0
  -17.5058   22.1593  -11.9160 C   0  0  0  0  0  0  0  0  0  0  0  0
  -15.5475   20.5698  -14.6308 C   0  0  0  0  0  0  0  0  0  0  0  0
  -14.9423   19.3117  -14.2943 O   0  0  0  0  0  0  0  0  0  0  0  0
  -15.9198   18.2731  -14.4287 C   0  0  0  0  0  0  0  0  0  0  0  0
  -16.0114   17.7127  -13.1278 N   0  0  0  0  0  0  0  0  0  0  0  0
  -16.4385   18.5898  -12.1694 C   0  0  0  0  0  0  0  0  0  0  0  0
  -16.7023   17.9298  -10.9973 C   0  0  0  0  0  0  0  0  0  0  0  0
  -17.2288   18.7629  -10.0004 C   0  0  0  0  0  0  0  0  0  0  0  0
  -16.3413   16.5630  -11.2540 C   0  0  0  0  0  0  0  0  0  0  0  0
  -16.3551   15.3855  -10.4769 C   0  0  0  0  0  0  0  0  0  0  0  0
  -15.9561   14.1690  -11.0419 C   0  0  0  0  0  0  0  0  0  0  0  0
  -15.5484   14.1017  -12.3705 C   0  0  0  0  0  0  0  0  0  0  0  0
  -15.5262   15.2430  -13.1765 C   0  0  0  0  0  0  0  0  0  0  0  0
  -15.9213   16.4598  -12.6040 C   0  0  0  0  0  0  0  0  0  0  0  0
  -15.6613   17.7265  -15.7996 C   0  0  0  0  0  0  0  0  0  0  0  0
  -15.7596   18.9831  -16.7628 C   0  0  0  0  0  0  0  0  0  0  0  0
  -16.2709   20.3452  -16.0262 C   0  0  0  0  0  0  0  0  0  0  0  0
  -14.3558   21.5382  -14.7145 C   0  0  0  0  0  0  0  0  0  0  0  0
  -18.4796   19.4951   -7.0887 H   0  0  0  0  0  0  0  0  0  0  0  0
  -14.4898   19.2092  -17.4804 N   0  0  0  0  0  0  0  0  0  0  0  0
  -13.5583   18.0960  -17.3736 C   0  0  0  0  0  0  0  0  0  0  0  0
  -14.0463   20.0678  -17.1499 H   0  0  0  0  0  0  0  0  0  0  0  0
  -16.1610   21.5185  -16.8518 O   0  0  0  0  0  0  0  0  0  0  0  0
  -17.3457   21.8387  -17.5668 C   0  0  0  0  0  0  0  0  0  0  0  0
  1  2  2  0  0  0
  2  3  1  0  0  0
  3  4  1  0  0  0
  4  5  1  0  0  0
  5  6  2  0  0  0
  6  7  1  0  0  0
  7  8  1  0  0  0
  8  9  1  0  0  0
  9 10  2  0  0  0
 10 11  1  0  0  0
 11 12  2  0  0  0
 12 13  1  0  0  0
 13 14  2  0  0  0
  8 15  1  0  0  0
 15 16  1  0  0  0
 16 17  1  0  0  0
 17 18  1  0  0  0
 18 19  1  0  0  0
 19 20  1  0  0  0
 20 21  2  0  0  0
 20 22  1  0  0  0
 22 23  2  0  0  0
 23 24  1  0  0  0
 24 25  2  0  0  0
 25 26  1  0  0  0
 26 27  2  0  0  0
 17 28  1  0  0  0
 28 29  1  0  0  0
 29 33  1  0  0  0
 33 34  1  0  0  0
 29 30  1  0  0  0
 30 36  1  0  0  0
 36 37  1  0  0  0
 15 31  1  0  0  0
 14  9  1  0  0  0
 14  6  1  0  0  0
 19  7  2  0  0  0
 21  5  1  0  0  0
 21  2  1  0  0  0
 27 18  1  0  0  0
 27 22  1  0  0  0
 30 15  1  0  0  0
  3 32  1  0  0  0
 33 35  1  0  0  0
M  END
> <minimizedAffinity>
-9.99715

$$$$



 37 44  0  0  0  0  0  0  0  0999 V2000
  -12.0336   12.5688  -15.2329 O   0  0  0  0  0  0  0  0  0  0  0  0
  -12.7177   13.1280  -14.3998 C   0  0  0  0  0  0  0  0  0  0  0  0
  -13.0695   12.6001  -13.1771 N   0  0  0  0  0  0  0  0  0  0  0  0
  -13.8982   13.4713  -12.3885 C   0  0  0  0  0  0  0  0  0  0  0  0
  -14.0504   14.6842  -13.2616 C   0  0  0  0  0  0  0  0  0  0  0  0
  -14.7793   15.8672  -13.0089 C   0  0  0  0  0  0  0  0  0  0  0  0
  -14.7249   16.8301  -13.9909 C   0  0  0  0  0  0  0  0  0  0  0  0
  -15.4048   17.9743  -13.5979 N   0  0  0  0  0  0  0  0  0  0  0  0
  -16.0648   17.6741  -12.4114 C   0  0  0  0  0  0  0  0  0  0  0  0
  -16.9761   18.4204  -11.6442 C   0  0  0  0  0  0  0  0  0  0  0  0
  -17.4467   17.8761  -10.4460 C   0  0  0  0  0  0  0  0  0  0  0  0
  -17.0277   16.6235  -10.0157 C   0  0  0  0  0  0  0  0  0  0  0  0
  -16.1320   15.8740  -10.7832 C   0  0  0  0  0  0  0  0  0  0  0  0
  -15.6430   16.3915  -12.0026 C   0  0  0  0  0  0  0  0  0  0  0  0
  -15.3131   19.3115  -14.2601 C   0  0  0  0  0  0  0  0  0  0  0  0
  -14.2960   19.1958  -15.2672 O   0  0  0  0  0  0  0  0  0  0  0  0
  -14.8130   18.4382  -16.3676 C   0  0  0  0  0  0  0  0  0  0  0  0
  -13.9521   17.3125  -16.4485 N   0  0  0  0  0  0  0  0  0  0  0  0
  -13.9604   16.5204  -15.3338 C   0  0  0  0  0  0  0  0  0  0  0  0
  -13.2768   15.3554  -15.5672 C   0  0  0  0  0  0  0  0  0  0  0  0
  -13.3245   14.4612  -14.4886 C   0  0  0  0  0  0  0  0  0  0  0  0
  -12.7627   15.4901  -16.9020 C   0  0  0  0  0  0  0  0  0  0  0  0
  -11.9750   14.6670  -17.7342 C   0  0  0  0  0  0  0  0  0  0  0  0
  -11.6577   15.0827  -19.0322 C   0  0  0  0  0  0  0  0  0  0  0  0
  -12.1160   16.3024  -19.5202 C   0  0  0  0  0  0  0  0  0  0  0  0
  -12.9040   17.1444  -18.7312 C   0  0  0  0  0  0  0  0  0  0  0  0
  -13.2140   16.7259  -17.4300 C   0  0  0  0  0  0  0  0  0  0  0  0
  -15.2706   19.4907  -17.3309 C   0  0  0  0  0  0  0  0  0  0  0  0
  -16.2756   20.3930  -16.4988 C   0  0  0  0  0  0  0  0  0  0  0  0
  -16.6181   19.8097  -15.0150 C   0  0  0  0  0  0  0  0  0  0  0  0
  -14.7433   20.3528  -13.2825 C   0  0  0  0  0  0  0  0  0  0  0  0
  -12.7579   11.6783  -12.9034 H   0  0  0  0  0  0  0  0  0  0  0  0
  -15.8076   21.7910  -16.4275 N   0  0  0  0  0  0  0  0  0  0  0  0
  -16.6567   22.7236  -17.1541 C   0  0  0  0  0  0  0  0  0  0  0  0
  -14.8464   21.8585  -16.7659 H   0  0  0  0  0  0  0  0  0  0  0  0
  -17.3608   20.7299  -14.1954 O   0  0  0  0  0  0  0  0  0  0  0  0
  -18.7696   20.6413  -14.3528 C   0  0  0  0  0  0  0  0  0  0  0  0
  1  2  2  0  0  0
  2  3  1  0  0  0
  3  4  1  0  0  0
  4  5  1  0  0  0
  5  6  2  0  0  0
  6  7  1  0  0  0
  7  8  1  0  0  0
  8  9  1  0  0  0
  9 10  2  0  0  0
 10 11  1  0  0  0
 11 12  2  0  0  0
 12 13  1  0  0  0
 13 14  2  0  0  0
  8 15  1  0  0  0
 15 16  1  0  0  0
 16 17  1  0  0  0
 17 18  1  0  0  0
 18 19  1  0  0  0
 19 20  1  0  0  0
 20 21  2  0  0  0
 20 22  1  0  0  0
 22 23  2  0  0  0
 23 24  1  0  0  0
 24 25  2  0  0  0
 25 26  1  0  0  0
 26 27  2  0  0  0
 17 28  1  0  0  0
 28 29  1  0  0  0
 29 33  1  0  0  0
 33 34  1  0  0  0
 29 30  1  0  0  0
 30 36  1  0  0  0
 36 37  1  0  0  0
 15 31  1  0  0  0
 14  9  1  0  0  0
 14  6  1  0  0  0
 19  7  2  0  0  0
 21  5  1  0  0  0
 21  2  1  0  0  0
 27 18  1  0  0  0
 27 22  1  0  0  0
 30 15  1  0  0  0
  3 32  1  0  0  0
 33 35  1  0  0  0
M  END
> <minimizedAffinity>
-9.92290

$$$$



 37 44  0  0  0  0  0  0  0  0999 V2000
  -15.1904   13.6787  -10.4689 O   0  0  0  0  0  0  0  0  0  0  0  0
  -15.7500   14.7378  -10.6690 C   0  0  0  0  0  0  0  0  0  0  0  0
  -16.6785   15.3157   -9.8314 N   0  0  0  0  0  0  0  0  0  0  0  0
  -17.1939   16.5674  -10.3164 C   0  0  0  0  0  0  0  0  0  0  0  0
  -16.4639   16.7598  -11.6151 C   0  0  0  0  0  0  0  0  0  0  0  0
  -16.5789   17.8181  -12.5433 C   0  0  0  0  0  0  0  0  0  0  0  0
  -15.7637   17.7406  -13.6497 C   0  0  0  0  0  0  0  0  0  0  0  0
  -15.9016   18.8703  -14.4439 N   0  0  0  0  0  0  0  0  0  0  0  0
  -16.9628   19.6077  -13.9305 C   0  0  0  0  0  0  0  0  0  0  0  0
  -17.5987   20.7684  -14.4040 C   0  0  0  0  0  0  0  0  0  0  0  0
  -18.6245   21.3301  -13.6387 C   0  0  0  0  0  0  0  0  0  0  0  0
  -19.0140   20.7582  -12.4341 C   0  0  0  0  0  0  0  0  0  0  0  0
  -18.3923   19.5967  -11.9677 C   0  0  0  0  0  0  0  0  0  0  0  0
  -17.3574   18.9996  -12.7202 C   0  0  0  0  0  0  0  0  0  0  0  0
  -14.9794   19.2747  -15.5489 C   0  0  0  0  0  0  0  0  0  0  0  0
  -13.8802   18.3511  -15.5177 O   0  0  0  0  0  0  0  0  0  0  0  0
  -14.3150   17.0907  -16.0417 C   0  0  0  0  0  0  0  0  0  0  0  0
  -14.1192   16.1828  -14.9683 N   0  0  0  0  0  0  0  0  0  0  0  0
  -14.8574   16.4674  -13.8528 C   0  0  0  0  0  0  0  0  0  0  0  0
  -14.7771   15.4403  -12.9486 C   0  0  0  0  0  0  0  0  0  0  0  0
  -15.5847   15.6339  -11.8193 C   0  0  0  0  0  0  0  0  0  0  0  0
  -13.8671   14.4984  -13.5396 C   0  0  0  0  0  0  0  0  0  0  0  0
  -13.3485   13.2516  -13.1311 C   0  0  0  0  0  0  0  0  0  0  0  0
  -12.4778   12.5467  -13.9699 C   0  0  0  0  0  0  0  0  0  0  0  0
  -12.1179   13.0583  -15.2127 C   0  0  0  0  0  0  0  0  0  0  0  0
  -12.6142   14.2863  -15.6580 C   0  0  0  0  0  0  0  0  0  0  0  0
  -13.4812   14.9909  -14.8116 C   0  0  0  0  0  0  0  0  0  0  0  0
  -13.8831   17.1418  -17.4755 C   0  0  0  0  0  0  0  0  0  0  0  0
  -14.5422   18.4649  -18.0511 C   0  0  0  0  0  0  0  0  0  0  0  0
  -15.5723   19.1958  -17.0196 C   0  0  0  0  0  0  0  0  0  0  0  0
  -14.3273   20.6304  -15.2299 C   0  0  0  0  0  0  0  0  0  0  0  0
  -16.9487   14.8631   -8.9690 H   0  0  0  0  0  0  0  0  0  0  0  0
  -13.5157   19.4075  -18.5372 N   0  0  0  0  0  0  0  0  0  0  0  0
  -12.2396   18.7725  -18.8317 C   0  0  0  0  0  0  0  0  0  0  0  0
  -13.3820   20.1619  -17.8619 H   0  0  0  0  0  0  0  0  0  0  0  0
  -16.0040   20.4940  -17.4653 O   0  0  0  0  0  0  0  0  0  0  0  0
  -16.9097   20.4613  -18.5588 C   0  0  0  0  0  0  0  0  0  0  0  0
  1  2  2  0  0  0
  2  3  1  0  0  0
  3  4  1  0  0  0
  4  5  1  0  0  0
  5  6  2  0  0  0
  6  7  1  0  0  0
  7  8  1  0  0  0
  8  9  1  0  0  0
  9 10  2  0  0  0
 10 11  1  0  0  0
 11 12  2  0  0  0
 12 13  1  0  0  0
 13 14  2  0  0  0
  8 15  1  0  0  0
 15 16  1  0  0  0
 16 17  1  0  0  0
 17 18  1  0  0  0
 18 19  1  0  0  0
 19 20  1  0  0  0
 20 21  2  0  0  0
 20 22  1  0  0  0
 22 23  2  0  0  0
 23 24  1  0  0  0
 24 25  2  0  0  0
 25 26  1  0  0  0
 26 27  2  0  0  0
 17 28  1  0  0  0
 28 29  1  0  0  0
 29 33  1  0  0  0
 33 34  1  0  0  0
 29 30  1  0  0  0
 30 36  1  0  0  0
 36 37  1  0  0  0
 15 31  1  0  0  0
 14  9  1  0  0  0
 14  6  1  0  0  0
 19  7  2  0  0  0
 21  5  1  0  0  0
 21  2  1  0  0  0
 27 18  1  0  0  0
 27 22  1  0  0  0
 30 15  1  0  0  0
  3 32  1  0  0  0
 33 35  1  0  0  0
M  END
> <minimizedAffinity>
-9.83044

$$$$



 37 44  0  0  0  0  0  0  0  0999 V2000
  -17.9930   16.6546   -8.3982 O   0  0  0  0  0  0  0  0  0  0  0  0
  -17.3180   16.2054   -9.3021 C   0  0  0  0  0  0  0  0  0  0  0  0
  -16.7104   14.9690   -9.3005 N   0  0  0  0  0  0  0  0  0  0  0  0
  -15.9589   14.6931  -10.4950 C   0  0  0  0  0  0  0  0  0  0  0  0
  -16.1559   15.9333  -11.3193 C   0  0  0  0  0  0  0  0  0  0  0  0
  -15.6325   16.2366  -12.5956 C   0  0  0  0  0  0  0  0  0  0  0  0
  -15.9988   17.4538  -13.1236 C   0  0  0  0  0  0  0  0  0  0  0  0
  -15.4968   17.6051  -14.4085 N   0  0  0  0  0  0  0  0  0  0  0  0
  -14.6368   16.5379  -14.6431 C   0  0  0  0  0  0  0  0  0  0  0  0
  -13.7845   16.2559  -15.7247 C   0  0  0  0  0  0  0  0  0  0  0  0
  -13.0618   15.0597  -15.7142 C   0  0  0  0  0  0  0  0  0  0  0  0
  -13.1774   14.1631  -14.6594 C   0  0  0  0  0  0  0  0  0  0  0  0
  -14.0140   14.4473  -13.5766 C   0  0  0  0  0  0  0  0  0  0  0  0
  -14.7526   15.6506  -13.5525 C   0  0  0  0  0  0  0  0  0  0  0  0
  -15.9255   18.6453  -15.3931 C   0  0  0  0  0  0  0  0  0  0  0  0
  -17.0310   19.3390  -14.7940 O   0  0  0  0  0  0  0  0  0  0  0  0
  -16.5369   20.2007  -13.7618 C   0  0  0  0  0  0  0  0  0  0  0  0
  -17.1759   19.7326  -12.5839 N   0  0  0  0  0  0  0  0  0  0  0  0
  -16.8682   18.4411  -12.2558 C   0  0  0  0  0  0  0  0  0  0  0  0
  -17.3482   18.1348  -11.0089 C   0  0  0  0  0  0  0  0  0  0  0  0
  -16.9880   16.8503  -10.5784 C   0  0  0  0  0  0  0  0  0  0  0  0
  -18.0556   19.3118  -10.5862 C   0  0  0  0  0  0  0  0  0  0  0  0
  -18.7822   19.6519   -9.4257 C   0  0  0  0  0  0  0  0  0  0  0  0
  -19.3454   20.9269   -9.3008 C   0  0  0  0  0  0  0  0  0  0  0  0
  -19.1933   21.8734  -10.3093 C   0  0  0  0  0  0  0  0  0  0  0  0
  -18.4758   21.5794  -11.4717 C   0  0  0  0  0  0  0  0  0  0  0  0
  -17.9187   20.2991  -11.5942 C   0  0  0  0  0  0  0  0  0  0  0  0
  -16.4191   21.5295  -14.4440 C   0  0  0  0  0  0  0  0  0  0  0  0
  -15.4959   21.2580  -15.7050 C   0  0  0  0  0  0  0  0  0  0  0  0
  -14.8516   19.7605  -15.7454 C   0  0  0  0  0  0  0  0  0  0  0  0
  -16.5405   17.9814  -16.6363 C   0  0  0  0  0  0  0  0  0  0  0  0
  -16.8045   14.3482   -8.5085 H   0  0  0  0  0  0  0  0  0  0  0  0
  -16.2019   21.5690  -16.9633 N   0  0  0  0  0  0  0  0  0  0  0  0
  -17.4852   22.2250  -16.7602 C   0  0  0  0  0  0  0  0  0  0  0  0
  -16.3284   20.7193  -17.5157 H   0  0  0  0  0  0  0  0  0  0  0  0
  -14.1885   19.4556  -16.9854 O   0  0  0  0  0  0  0  0  0  0  0  0
  -12.8850   18.9138  -16.8291 C   0  0  0  0  0  0  0  0  0  0  0  0
  1  2  2  0  0  0
  2  3  1  0  0  0
  3  4  1  0  0  0
  4  5  1  0  0  0
  5  6  2  0  0  0
  6  7  1  0  0  0
  7  8  1  0  0  0
  8  9  1  0  0  0
  9 10  2  0  0  0
 10 11  1  0  0  0
 11 12  2  0  0  0
 12 13  1  0  0  0
 13 14  2  0  0  0
  8 15  1  0  0  0
 15 16  1  0  0  0
 16 17  1  0  0  0
 17 18  1  0  0  0
 18 19  1  0  0  0
 19 20  1  0  0  0
 20 21  2  0  0  0
 20 22  1  0  0  0
 22 23  2  0  0  0
 23 24  1  0  0  0
 24 25  2  0  0  0
 25 26  1  0  0  0
 26 27  2  0  0  0
 17 28  1  0  0  0
 28 29  1  0  0  0
 29 33  1  0  0  0
 33 34  1  0  0  0
 29 30  1  0  0  0
 30 36  1  0  0  0
 36 37  1  0  0  0
 15 31  1  0  0  0
 14  9  1  0  0  0
 14  6  1  0  0  0
 19  7  2  0  0  0
 21  5  1  0  0  0
 21  2  1  0  0  0
 27 18  1  0  0  0
 27 22  1  0  0  0
 30 15  1  0  0  0
  3 32  1  0  0  0
 33 35  1  0  0  0
M  END
> <minimizedAffinity>
-9.73806

$$$$



 37 44  0  0  0  0  0  0  0  0999 V2000
  -18.8817   21.3993  -12.5808 O   0  0  0  0  0  0  0  0  0  0  0  0
  -18.5011   21.3896  -13.7340 C   0  0  0  0  0  0  0  0  0  0  0  0
  -18.9330   22.2494  -14.7198 N   0  0  0  0  0  0  0  0  0  0  0  0
  -18.3275   22.0094  -16.0017 C   0  0  0  0  0  0  0  0  0  0  0  0
  -17.4048   20.8543  -15.7352 C   0  0  0  0  0  0  0  0  0  0  0  0
  -16.5568   20.1762  -16.6384 C   0  0  0  0  0  0  0  0  0  0  0  0
  -15.8019   19.1558  -16.1059 C   0  0  0  0  0  0  0  0  0  0  0  0
  -14.9501   18.6216  -17.0625 N   0  0  0  0  0  0  0  0  0  0  0  0
  -15.2942   19.1901  -18.2839 C   0  0  0  0  0  0  0  0  0  0  0  0
  -14.8372   18.9305  -19.5877 C   0  0  0  0  0  0  0  0  0  0  0  0
  -15.3321   19.7080  -20.6384 C   0  0  0  0  0  0  0  0  0  0  0  0
  -16.2576   20.7178  -20.4071 C   0  0  0  0  0  0  0  0  0  0  0  0
  -16.7235   20.9690  -19.1137 C   0  0  0  0  0  0  0  0  0  0  0  0
  -16.2493   20.1969  -18.0307 C   0  0  0  0  0  0  0  0  0  0  0  0
  -13.7909   17.7183  -16.7880 C   0  0  0  0  0  0  0  0  0  0  0  0
  -13.6670   17.6410  -15.3593 O   0  0  0  0  0  0  0  0  0  0  0  0
  -14.7184   16.8157  -14.8439 C   0  0  0  0  0  0  0  0  0  0  0  0
  -15.4389   17.6752  -13.9738 N   0  0  0  0  0  0  0  0  0  0  0  0
  -16.0003   18.7569  -14.5942 C   0  0  0  0  0  0  0  0  0  0  0  0
  -16.8459   19.4155  -13.7397 C   0  0  0  0  0  0  0  0  0  0  0  0
  -17.5210   20.4845  -14.3453 C   0  0  0  0  0  0  0  0  0  0  0  0
  -16.7301   18.7133  -12.4916 C   0  0  0  0  0  0  0  0  0  0  0  0
  -17.3134   18.8803  -11.2179 C   0  0  0  0  0  0  0  0  0  0  0  0
  -17.0083   17.9863  -10.1854 C   0  0  0  0  0  0  0  0  0  0  0  0
  -16.1362   16.9235  -10.3995 C   0  0  0  0  0  0  0  0  0  0  0  0
  -15.5422   16.7185  -11.6475 C   0  0  0  0  0  0  0  0  0  0  0  0
  -15.8466   17.6202  -12.6765 C   0  0  0  0  0  0  0  0  0  0  0  0
  -14.0702   15.4721  -14.7047 C   0  0  0  0  0  0  0  0  0  0  0  0
  -13.4957   15.1472  -16.1473 C   0  0  0  0  0  0  0  0  0  0  0  0
  -13.9357   16.2202  -17.2937 C   0  0  0  0  0  0  0  0  0  0  0  0
  -12.4785   18.3845  -17.2335 C   0  0  0  0  0  0  0  0  0  0  0  0
  -19.6192   22.9636  -14.5181 H   0  0  0  0  0  0  0  0  0  0  0  0
  -12.0304   14.9730  -16.1140 N   0  0  0  0  0  0  0  0  0  0  0  0
  -11.6145   13.6514  -15.6680 C   0  0  0  0  0  0  0  0  0  0  0  0
  -11.6035   15.6899  -15.5250 H   0  0  0  0  0  0  0  0  0  0  0  0
  -13.2486   16.0360  -18.5444 O   0  0  0  0  0  0  0  0  0  0  0  0
  -13.3752   14.7308  -19.0900 C   0  0  0  0  0  0  0  0  0  0  0  0
  1  2  2  0  0  0
  2  3  1  0  0  0
  3  4  1  0  0  0
  4  5  1  0  0  0
  5  6  2  0  0  0
  6  7  1  0  0  0
  7  8  1  0  0  0
  8  9  1  0  0  0
  9 10  2  0  0  0
 10 11  1  0  0  0
 11 12  2  0  0  0
 12 13  1  0  0  0
 13 14  2  0  0  0
  8 15  1  0  0  0
 15 16  1  0  0  0
 16 17  1  0  0  0
 17 18  1  0  0  0
 18 19  1  0  0  0
 19 20  1  0  0  0
 20 21  2  0  0  0
 20 22  1  0  0  0
 22 23  2  0  0  0
 23 24  1  0  0  0
 24 25  2  0  0  0
 25 26  1  0  0  0
 26 27  2  0  0  0
 17 28  1  0  0  0
 28 29  1  0  0  0
 29 33  1  0  0  0
 33 34  1  0  0  0
 29 30  1  0  0  0
 30 36  1  0  0  0
 36 37  1  0  0  0
 15 31  1  0  0  0
 14  9  1  0  0  0
 14  6  1  0  0  0
 19  7  2  0  0  0
 21  5  1  0  0  0
 21  2  1  0  0  0
 27 18  1  0  0  0
 27 22  1  0  0  0
 30 15  1  0  0  0
  3 32  1  0  0  0
 33 35  1  0  0  0
M  END
> <minimizedAffinity>
-9.73796

$$$$



 37 44  0  0  0  0  0  0  0  0999 V2000
  -12.6993   16.2040  -19.3181 O   0  0  0  0  0  0  0  0  0  0  0  0
  -12.9420   15.8984  -18.1682 C   0  0  0  0  0  0  0  0  0  0  0  0
  -12.4736   14.7707  -17.5307 N   0  0  0  0  0  0  0  0  0  0  0  0
  -12.9253   14.6459  -16.1712 C   0  0  0  0  0  0  0  0  0  0  0  0
  -13.7701   15.8725  -15.9757 C   0  0  0  0  0  0  0  0  0  0  0  0
  -14.4890   16.2747  -14.8284 C   0  0  0  0  0  0  0  0  0  0  0  0
  -15.1680   17.4677  -14.9302 C   0  0  0  0  0  0  0  0  0  0  0  0
  -15.7642   17.8004  -13.7220 N   0  0  0  0  0  0  0  0  0  0  0  0
  -15.6170   16.7073  -12.8753 C   0  0  0  0  0  0  0  0  0  0  0  0
  -16.1212   16.4595  -11.5867 C   0  0  0  0  0  0  0  0  0  0  0  0
  -15.7598   15.2730  -10.9425 C   0  0  0  0  0  0  0  0  0  0  0  0
  -14.9207   14.3520  -11.5569 C   0  0  0  0  0  0  0  0  0  0  0  0
  -14.4288   14.5899  -12.8432 C   0  0  0  0  0  0  0  0  0  0  0  0
  -14.7805   15.7754  -13.5249 C   0  0  0  0  0  0  0  0  0  0  0  0
  -16.3239   19.1407  -13.3679 C   0  0  0  0  0  0  0  0  0  0  0  0
  -15.9940   20.0177  -14.4561 O   0  0  0  0  0  0  0  0  0  0  0  0
  -16.8376   19.7130  -15.5731 C   0  0  0  0  0  0  0  0  0  0  0  0
  -15.9318   19.3383  -16.5997 N   0  0  0  0  0  0  0  0  0  0  0  0
  -15.1814   18.2329  -16.3079 C   0  0  0  0  0  0  0  0  0  0  0  0
  -14.4934   17.8129  -17.4166 C   0  0  0  0  0  0  0  0  0  0  0  0
  -13.7727   16.6294  -17.2042 C   0  0  0  0  0  0  0  0  0  0  0  0
  -14.8035   18.7807  -18.4322 C   0  0  0  0  0  0  0  0  0  0  0  0
  -14.4188   18.9413  -19.7800 C   0  0  0  0  0  0  0  0  0  0  0  0
  -14.9313   20.0039  -20.5326 C   0  0  0  0  0  0  0  0  0  0  0  0
  -15.8263   20.9080  -19.9690 C   0  0  0  0  0  0  0  0  0  0  0  0
  -16.2380   20.7812  -18.6397 C   0  0  0  0  0  0  0  0  0  0  0  0
  -15.7171   19.7186  -17.8887 C   0  0  0  0  0  0  0  0  0  0  0  0
  -17.9468   20.7133  -15.4550 C   0  0  0  0  0  0  0  0  0  0  0  0
  -18.5272   20.5052  -13.9934 C   0  0  0  0  0  0  0  0  0  0  0  0
  -17.9015   19.2205  -13.2079 C   0  0  0  0  0  0  0  0  0  0  0  0
  -15.5622   19.7378  -12.1729 C   0  0  0  0  0  0  0  0  0  0  0  0
  -11.8761   14.1145  -18.0143 H   0  0  0  0  0  0  0  0  0  0  0  0
  -18.4035   21.7354  -13.1873 N   0  0  0  0  0  0  0  0  0  0  0  0
  -17.6222   22.7773  -13.8372 C   0  0  0  0  0  0  0  0  0  0  0  0
  -18.0034   21.5188  -12.2729 H   0  0  0  0  0  0  0  0  0  0  0  0
  -18.2766   19.1594  -11.8202 O   0  0  0  0  0  0  0  0  0  0  0  0
  -19.6035   19.5925  -11.5575 C   0  0  0  0  0  0  0  0  0  0  0  0
  1  2  2  0  0  0
  2  3  1  0  0  0
  3  4  1  0  0  0
  4  5  1  0  0  0
  5  6  2  0  0  0
  6  7  1  0  0  0
  7  8  1  0  0  0
  8  9  1  0  0  0
  9 10  2  0  0  0
 10 11  1  0  0  0
 11 12  2  0  0  0
 12 13  1  0  0  0
 13 14  2  0  0  0
  8 15  1  0  0  0
 15 16  1  0  0  0
 16 17  1  0  0  0
 17 18  1  0  0  0
 18 19  1  0  0  0
 19 20  1  0  0  0
 20 21  2  0  0  0
 20 22  1  0  0  0
 22 23  2  0  0  0
 23 24  1  0  0  0
 24 25  2  0  0  0
 25 26  1  0  0  0
 26 27  2  0  0  0
 17 28  1  0  0  0
 28 29  1  0  0  0
 29 33  1  0  0  0
 33 34  1  0  0  0
 29 30  1  0  0  0
 30 36  1  0  0  0
 36 37  1  0  0  0
 15 31  1  0  0  0
 14  9  1  0  0  0
 14  6  1  0  0  0
 19  7  2  0  0  0
 21  5  1  0  0  0
 21  2  1  0  0  0
 27 18  1  0  0  0
 27 22  1  0  0  0
 30 15  1  0  0  0
  3 32  1  0  0  0
 33 35  1  0  0  0
M  END
> <minimizedAffinity>
-9.73409

$$$$
