Molecule_0


 37 44  0  0  0  0  0  0  0  0999 V2000
  -16.6393   15.2649   -9.5337 O   0  0  0  0  0  0  0  0  0  0  0  0
  -16.1793   15.4470  -10.6424 C   0  0  0  0  0  0  0  0  0  0  0  0
  -15.5112   14.4952  -11.3810 N   0  0  0  0  0  0  0  0  0  0  0  0
  -15.0739   14.9691  -12.6638 C   0  0  0  0  0  0  0  0  0  0  0  0
  -15.5418   16.3950  -12.6762 C   0  0  0  0  0  0  0  0  0  0  0  0
  -15.4149   17.3576  -13.6923 C   0  0  0  0  0  0  0  0  0  0  0  0
  -15.9320   18.6088  -13.4282 C   0  0  0  0  0  0  0  0  0  0  0  0
  -15.7038   19.4520  -14.4817 N   0  0  0  0  0  0  0  0  0  0  0  0
  -15.1661   18.6931  -15.5258 C   0  0  0  0  0  0  0  0  0  0  0  0
  -14.8676   19.0067  -16.8662 C   0  0  0  0  0  0  0  0  0  0  0  0
  -14.2794   18.0313  -17.6773 C   0  0  0  0  0  0  0  0  0  0  0  0
  -13.9971   16.7665  -17.1821 C   0  0  0  0  0  0  0  0  0  0  0  0
  -14.3160   16.4409  -15.8628 C   0  0  0  0  0  0  0  0  0  0  0  0
  -14.9164   17.4038  -15.0220 C   0  0  0  0  0  0  0  0  0  0  0  0
  -15.9950   20.9054  -14.5029 C   0  0  0  0  0  0  0  0  0  0  0  0
  -16.1044   21.4256  -13.1597 O   0  0  0  0  0  0  0  0  0  0  0  0
  -17.3316   21.2657  -12.4585 C   0  0  0  0  0  0  0  0  0  0  0  0
  -17.3097   20.0183  -11.7059 N   0  0  0  0  0  0  0  0  0  0  0  0
  -16.6809   18.8806  -12.0969 C   0  0  0  0  0  0  0  0  0  0  0  0
  -16.8188   17.9023  -11.1287 C   0  0  0  0  0  0  0  0  0  0  0  0
  -16.2165   16.6764  -11.4474 C   0  0  0  0  0  0  0  0  0  0  0  0
  -17.5803   18.4961  -10.0758 C   0  0  0  0  0  0  0  0  0  0  0  0
  -18.0582   18.0431   -8.8270 C   0  0  0  0  0  0  0  0  0  0  0  0
  -18.8101   18.8938   -8.0101 C   0  0  0  0  0  0  0  0  0  0  0  0
  -19.0977   20.1903   -8.4169 C   0  0  0  0  0  0  0  0  0  0  0  0
  -18.6422   20.6722   -9.6461 C   0  0  0  0  0  0  0  0  0  0  0  0
  -17.8842   19.8135  -10.4625 C   0  0  0  0  0  0  0  0  0  0  0  0
  -18.5922   21.5116  -13.2815 C   0  0  0  0  0  0  0  0  0  0  0  0
  -18.5787   20.8915  -14.6830 C   0  0  0  0  0  0  0  0  0  0  0  0
  -17.2381   21.2392  -15.3823 C   0  0  0  0  0  0  0  0  0  0  0  0
  -14.7445   21.6753  -14.9981 C   0  0  0  0  0  0  0  0  0  0  0  0
  -15.3680   13.5639  -11.0152 H   0  0  0  0  0  0  0  0  0  0  0  0
  -18.9867   19.4833  -14.6229 N   0  0  0  0  0  0  0  0  0  0  0  0
  -20.3055   19.2690  -14.0487 C   0  0  0  0  0  0  0  0  0  0  0  0
  -18.9227   19.0058  -15.5211 H   0  0  0  0  0  0  0  0  0  0  0  0
  -17.2410   22.6618  -15.6693 O   0  0  0  0  0  0  0  0  0  0  0  0
  -18.1029   23.0168  -16.7446 C   0  0  0  0  0  0  0  0  0  0  0  0
  1  2  2  0  0  0
  2  3  1  0  0  0
  3  4  1  0  0  0
  4  5  1  0  0  0
  5  6  2  0  0  0
  6  7  1  0  0  0
  7  8  1  0  0  0
  8  9  1  0  0  0
  9 10  2  0  0  0
 10 11  1  0  0  0
 11 12  2  0  0  0
 12 13  1  0  0  0
 13 14  2  0  0  0
  8 15  1  0  0  0
 15 16  1  0  0  0
 16 17  1  0  0  0
 17 18  1  0  0  0
 18 19  1  0  0  0
 19 20  1  0  0  0
 20 21  2  0  0  0
 20 22  1  0  0  0
 22 23  2  0  0  0
 23 24  1  0  0  0
 24 25  2  0  0  0
 25 26  1  0  0  0
 26 27  2  0  0  0
 17 28  1  0  0  0
 28 29  1  0  0  0
 29 33  1  0  0  0
 33 34  1  0  0  0
 29 30  1  0  0  0
 30 36  1  0  0  0
 36 37  1  0  0  0
 15 31  1  0  0  0
 14  9  1  0  0  0
 14  6  1  0  0  0
 19  7  2  0  0  0
 21  5  1  0  0  0
 21  2  1  0  0  0
 27 18  1  0  0  0
 27 22  1  0  0  0
 30 15  1  0  0  0
  3 32  1  0  0  0
 33 35  1  0  0  0
M  END
> <minimizedAffinity>
-11.16573

$$$$
Molecule_1


 37 44  0  0  0  0  0  0  0  0999 V2000
  -16.0776   20.4619  -16.0369 C   0  0  0  0  0  0  0  0  0  0  0  0
  -15.1673   19.2318  -15.9324 C   0  0  0  0  0  0  0  0  0  0  0  0
  -14.5457   19.0853  -14.5380 C   0  0  0  0  0  0  0  0  0  0  0  0
  -14.7706   20.1934  -13.6714 O   0  0  0  0  0  0  0  0  0  0  0  0
  -16.1318   20.6712  -13.5233 C   0  0  0  0  0  0  0  0  0  0  0  0
  -15.8585   22.1784  -13.3087 C   0  0  0  0  0  0  0  0  0  0  0  0
  -17.0107   20.4801  -14.8057 C   0  0  0  0  0  0  0  0  0  0  0  0
  -16.7233   20.0210  -12.3402 N   0  0  0  0  0  0  0  0  0  0  0  0
  -17.6757   20.5207  -11.4515 C   0  0  0  0  0  0  0  0  0  0  0  0
  -18.3673   21.7457  -11.3819 C   0  0  0  0  0  0  0  0  0  0  0  0
  -19.2651   21.9666  -10.3316 C   0  0  0  0  0  0  0  0  0  0  0  0
  -19.4920   20.9945   -9.3698 C   0  0  0  0  0  0  0  0  0  0  0  0
  -18.8361   19.7660   -9.4482 C   0  0  0  0  0  0  0  0  0  0  0  0
  -17.9259   19.5132  -10.4989 C   0  0  0  0  0  0  0  0  0  0  0  0
  -17.1790   18.3640  -10.8754 C   0  0  0  0  0  0  0  0  0  0  0  0
  -17.0293   17.0429  -10.4222 C   0  0  0  0  0  0  0  0  0  0  0  0
  -16.2154   16.0934  -11.1149 C   0  0  0  0  0  0  0  0  0  0  0  0
  -15.4853   16.3615  -12.2831 C   0  0  0  0  0  0  0  0  0  0  0  0
  -14.6282   15.6815  -13.2020 C   0  0  0  0  0  0  0  0  0  0  0  0
  -14.1443   14.3593  -13.3082 C   0  0  0  0  0  0  0  0  0  0  0  0
  -13.2904   14.0030  -14.3573 C   0  0  0  0  0  0  0  0  0  0  0  0
  -12.9066   14.9431  -15.3045 C   0  0  0  0  0  0  0  0  0  0  0  0
  -13.3641   16.2605  -15.2302 C   0  0  0  0  0  0  0  0  0  0  0  0
  -14.2259   16.6119  -14.1748 C   0  0  0  0  0  0  0  0  0  0  0  0
  -14.8170   17.8254  -13.8536 N   0  0  0  0  0  0  0  0  0  0  0  0
  -15.5843   17.6648  -12.7418 C   0  0  0  0  0  0  0  0  0  0  0  0
  -16.4744   18.7126  -12.0072 C   0  0  0  0  0  0  0  0  0  0  0  0
  -16.3125   14.8245  -10.3777 C   0  0  0  0  0  0  0  0  0  0  0  0
  -15.7722   13.7671  -10.6314 O   0  0  0  0  0  0  0  0  0  0  0  0
  -17.1513   15.0370   -9.3056 N   0  0  0  0  0  0  0  0  0  0  0  0
  -17.6603   16.3774   -9.2351 C   0  0  0  0  0  0  0  0  0  0  0  0
  -17.3621   14.2903   -8.6580 H   0  0  0  0  0  0  0  0  0  0  0  0
  -16.3334   19.6525  -18.3419 C   0  0  0  0  0  0  0  0  0  0  0  0
  -16.8901   20.4654  -17.2715 N   0  0  0  0  0  0  0  0  0  0  0  0
  -17.8317   20.1363  -17.0411 H   0  0  0  0  0  0  0  0  0  0  0  0
  -17.7114   19.2145  -14.8182 O   0  0  0  0  0  0  0  0  0  0  0  0
  -19.1221   19.3565  -14.7114 C   0  0  0  0  0  0  0  0  0  0  0  0
 33 34  1  0  0  0
 34  1  1  0  0  0
  1  2  1  0  0  0
  2  3  1  0  0  0
  3  4  1  0  0  0
  4  5  1  0  0  0
  5  6  1  0  0  0
  5  7  1  0  0  0
  7 36  1  0  0  0
 36 37  1  0  0  0
  5  8  1  0  0  0
  8  9  1  0  0  0
  9 10  2  0  0  0
 10 11  1  0  0  0
 11 12  2  0  0  0
 12 13  1  0  0  0
 13 14  2  0  0  0
 14 15  1  0  0  0
 15 16  2  0  0  0
 16 17  1  0  0  0
 17 18  2  0  0  0
 18 19  1  0  0  0
 19 20  2  0  0  0
 20 21  1  0  0  0
 21 22  2  0  0  0
 22 23  1  0  0  0
 23 24  2  0  0  0
 24 25  1  0  0  0
 25 26  1  0  0  0
 26 27  2  0  0  0
 17 28  1  0  0  0
 28 29  2  0  0  0
 28 30  1  0  0  0
 30 31  1  0  0  0
  7  1  1  0  0  0
 27  8  1  0  0  0
 25  3  1  0  0  0
 14  9  1  0  0  0
 27 15  1  0  0  0
 31 16  1  0  0  0
 26 18  1  0  0  0
 24 19  1  0  0  0
 34 35  1  0  0  0
 30 32  1  0  0  0
M  END
> <minimizedAffinity>
-13.13650

$$$$
Molecule_2


 34 37  0  0  0  0  0  0  0  0999 V2000
  -19.0681   20.9388  -11.8410 C   0  0  0  0  0  0  0  0  0  0  0  0
  -18.1466   21.9859  -11.7461 C   0  0  0  0  0  0  0  0  0  0  0  0
  -17.4939   22.4751  -12.8835 C   0  0  0  0  0  0  0  0  0  0  0  0
  -17.8163   21.8789  -14.1102 C   0  0  0  0  0  0  0  0  0  0  0  0
  -18.7475   20.8520  -14.2207 C   0  0  0  0  0  0  0  0  0  0  0  0
  -19.3990   20.3739  -13.0756 C   0  0  0  0  0  0  0  0  0  0  0  0
  -18.8810   20.4508  -15.5221 N   0  0  0  0  0  0  0  0  0  0  0  0
  -18.0651   21.1976  -16.2342 C   0  0  0  0  0  0  0  0  0  0  0  0
  -17.3964   22.0833  -15.4057 N   0  0  0  0  0  0  0  0  0  0  0  0
  -16.4232   23.0612  -15.8287 C   0  0  0  0  0  0  0  0  0  0  0  0
  -17.8291   21.1853  -17.5695 N   0  0  0  0  0  0  0  0  0  0  0  0
  -18.4122   21.7340  -18.1860 H   0  0  0  0  0  0  0  0  0  0  0  0
  -16.8431   20.4625  -18.2788 C   0  0  0  0  0  0  0  0  0  0  0  0
  -16.7353   20.4386  -19.6687 C   0  0  0  0  0  0  0  0  0  0  0  0
  -15.7397   19.6902  -20.2978 C   0  0  0  0  0  0  0  0  0  0  0  0
  -14.8297   18.9456  -19.5465 C   0  0  0  0  0  0  0  0  0  0  0  0
  -14.8939   18.9309  -18.1474 C   0  0  0  0  0  0  0  0  0  0  0  0
  -15.9137   19.6997  -17.5412 C   0  0  0  0  0  0  0  0  0  0  0  0
  -13.9134   18.1232  -17.2793 C   0  0  0  0  0  0  0  0  0  0  0  0
  -12.4624   18.4560  -17.6887 C   0  0  0  0  0  0  0  0  0  0  0  0
  -14.0831   16.5920  -17.4047 C   0  0  0  0  0  0  0  0  0  0  0  0
  -14.1175   18.4832  -15.7916 C   0  0  0  0  0  0  0  0  0  0  0  0
  -19.7372   20.4647  -10.7332 O   0  0  0  0  0  0  0  0  0  0  0  0
  -17.7459   17.7528   -9.3853 C   0  0  0  0  0  0  0  0  0  0  0  0
  -18.5167   18.4968  -10.2622 C   0  0  0  0  0  0  0  0  0  0  0  0
  -18.9963   19.7313   -9.8325 C   0  0  0  0  0  0  0  0  0  0  0  0
  -18.6688   20.2091   -8.5694 C   0  0  0  0  0  0  0  0  0  0  0  0
  -17.8919   19.3994   -7.7665 C   0  0  0  0  0  0  0  0  0  0  0  0
  -17.4317   18.1857   -8.1433 N   0  0  0  0  0  0  0  0  0  0  0  0
  -15.9260   14.6968  -10.6045 C   0  0  0  0  0  0  0  0  0  0  0  0
  -16.2571   16.1682  -10.6028 C   0  0  0  0  0  0  0  0  0  0  0  0
  -15.6798   16.9406  -11.3603 O   0  0  0  0  0  0  0  0  0  0  0  0
  -17.2135   16.4960   -9.6739 N   0  0  0  0  0  0  0  0  0  0  0  0
  -17.6224   15.7722   -9.0986 H   0  0  0  0  0  0  0  0  0  0  0  0
 30 31  1  0  0  0
 31 32  2  0  0  0
 31 33  1  0  0  0
 33 24  1  0  0  0
 24 25  2  0  0  0
 25 26  1  0  0  0
 26 23  1  0  0  0
 23  1  1  0  0  0
  1  2  2  0  0  0
  2  3  1  0  0  0
  3  4  2  0  0  0
  4  5  1  0  0  0
  5  6  2  0  0  0
  5  7  1  0  0  0
  7  8  2  0  0  0
  8 11  1  0  0  0
 11 13  1  0  0  0
 13 14  2  0  0  0
 14 15  1  0  0  0
 15 16  2  0  0  0
 16 17  1  0  0  0
 17 19  1  0  0  0
 19 20  1  0  0  0
 19 21  1  0  0  0
 19 22  1  0  0  0
 17 18  2  0  0  0
  8  9  1  0  0  0
  9 10  1  0  0  0
 26 27  2  0  0  0
 27 28  1  0  0  0
 28 29  2  0  0  0
 29 24  1  0  0  0
  6  1  1  0  0  0
 18 13  1  0  0  0
  9  4  1  0  0  0
 33 34  1  0  0  0
 11 12  1  0  0  0
M  END
> <minimizedAffinity>
-8.72770

$$$$
Molecule_3


 30 34  0  0  0  0  0  0  0  0999 V2000
  -16.6603   18.8078  -14.3919 C   0  0  0  0  0  0  0  0  0  0  0  0
  -15.7883   18.5496  -15.6327 C   0  0  0  0  0  0  0  0  0  0  0  0
  -15.2645   17.1156  -15.6028 C   0  0  0  0  0  0  0  0  0  0  0  0
  -14.1472   16.8479  -16.6060 C   0  0  0  0  0  0  0  0  0  0  0  0
  -13.4672   15.7036  -15.9963 N   0  0  0  0  0  0  0  0  0  0  0  0
  -13.3267   16.0614  -14.5799 C   0  0  0  0  0  0  0  0  0  0  0  0
  -14.6787   16.6991  -14.2440 C   0  0  0  0  0  0  0  0  0  0  0  0
  -14.5532   17.8636  -13.2603 C   0  0  0  0  0  0  0  0  0  0  0  0
  -15.8897   18.6021  -13.0584 C   0  0  0  0  0  0  0  0  0  0  0  0
  -19.7080   19.3417  -14.3080 C   0  0  0  0  0  0  0  0  0  0  0  0
  -18.6553   20.3838  -14.4102 C   0  0  0  0  0  0  0  0  0  0  0  0
  -18.8783   21.6817  -14.4811 N   0  0  0  0  0  0  0  0  0  0  0  0
  -17.6480   22.2752  -14.5261 C   0  0  0  0  0  0  0  0  0  0  0  0
  -16.6531   21.3305  -14.4896 C   0  0  0  0  0  0  0  0  0  0  0  0
  -17.3014   20.1233  -14.4359 N   0  0  0  0  0  0  0  0  0  0  0  0
  -12.1863   15.4166  -16.6480 C   0  0  0  0  0  0  0  0  0  0  0  0
  -11.7189   13.9954  -16.4184 C   0  0  0  0  0  0  0  0  0  0  0  0
  -12.2147   12.9413  -17.2002 C   0  0  0  0  0  0  0  0  0  0  0  0
  -11.7825   11.6313  -16.9814 C   0  0  0  0  0  0  0  0  0  0  0  0
  -10.8510   11.3611  -15.9791 C   0  0  0  0  0  0  0  0  0  0  0  0
  -10.3541   12.4027  -15.1982 C   0  0  0  0  0  0  0  0  0  0  0  0
   -9.2037   12.0692  -13.9624 Cl  0  0  0  0  0  0  0  0  0  0  0  0
  -10.7828   13.7118  -15.4110 C   0  0  0  0  0  0  0  0  0  0  0  0
  -16.7498   17.8172  -12.2089 O   0  0  0  0  0  0  0  0  0  0  0  0
  -17.0399   18.3785  -10.9820 C   0  0  0  0  0  0  0  0  0  0  0  0
  -17.3694   19.7247  -10.9896 C   0  0  0  0  0  0  0  0  0  0  0  0
  -17.6825   20.3354   -9.7796 C   0  0  0  0  0  0  0  0  0  0  0  0
  -17.6579   19.5803   -8.6127 C   0  0  0  0  0  0  0  0  0  0  0  0
  -17.3234   18.2389   -8.7075 C   0  0  0  0  0  0  0  0  0  0  0  0
  -17.0188   17.6184   -9.8682 N   0  0  0  0  0  0  0  0  0  0  0  0
 10 11  1  0  0  0
 11 12  2  0  0  0
 12 13  1  0  0  0
 13 14  2  0  0  0
 14 15  1  0  0  0
 15  1  1  0  0  0
  1  2  1  0  0  0
  2  3  1  0  0  0
  3  4  1  0  0  0
  4  5  1  0  0  0
  5 16  1  0  0  0
 16 17  1  0  0  0
 17 18  2  0  0  0
 18 19  1  0  0  0
 19 20  2  0  0  0
 20 21  1  0  0  0
 21 22  1  0  0  0
 21 23  2  0  0  0
  5  6  1  0  0  0
  6  7  1  0  0  0
  7  8  1  0  0  0
  8  9  1  0  0  0
  9 24  1  0  0  0
 24 25  1  0  0  0
 25 26  2  0  0  0
 26 27  1  0  0  0
 27 28  2  0  0  0
 28 29  1  0  0  0
 29 30  2  0  0  0
 15 11  1  0  0  0
  9  1  1  0  0  0
 30 25  1  0  0  0
  7  3  1  0  0  0
 23 17  1  0  0  0
M  END
> <minimizedAffinity>
-8.31514

$$$$
Molecule_4


 29 30  0  0  0  0  0  0  0  0999 V2000
  -17.3053   21.4854  -13.3713 N   0  0  0  0  0  0  0  0  0  0  0  0
  -15.9970   21.0100  -13.2163 C   0  0  0  0  0  0  0  0  0  0  0  0
  -15.0377   21.6807  -13.6103 O   0  0  0  0  0  0  0  0  0  0  0  0
  -18.5250   20.7650  -12.9383 C   0  0  0  0  0  0  0  0  0  0  0  0
  -18.7981   20.7582  -11.4097 C   0  0  0  0  0  0  0  0  0  0  0  0
  -19.0353   21.8048  -10.8070 O   0  0  0  0  0  0  0  0  0  0  0  0
  -18.7202   19.5415  -10.7682 N   0  0  0  0  0  0  0  0  0  0  0  0
  -18.3064   18.7599  -11.2467 H   0  0  0  0  0  0  0  0  0  0  0  0
  -18.8808   19.4239   -9.3225 C   0  0  0  0  0  0  0  0  0  0  0  0
  -19.3959   18.0325   -8.9663 C   0  0  0  0  0  0  0  0  0  0  0  0
  -17.5616   19.7104   -8.6086 C   0  0  0  0  0  0  0  0  0  0  0  0
  -19.9794   19.2289  -14.4608 C   0  0  0  0  0  0  0  0  0  0  0  0
  -18.7226   19.3946  -13.6232 C   0  0  0  0  0  0  0  0  0  0  0  0
  -17.4546   22.8216  -13.9661 C   0  0  0  0  0  0  0  0  0  0  0  0
  -17.8571   22.8676  -15.4278 C   0  0  0  0  0  0  0  0  0  0  0  0
  -17.8941   21.7178  -16.2341 C   0  0  0  0  0  0  0  0  0  0  0  0
  -18.2344   21.7906  -17.5891 C   0  0  0  0  0  0  0  0  0  0  0  0
  -18.5389   23.0155  -18.1703 C   0  0  0  0  0  0  0  0  0  0  0  0
  -18.5087   24.1698  -17.3938 C   0  0  0  0  0  0  0  0  0  0  0  0
  -18.1674   24.1002  -16.0376 C   0  0  0  0  0  0  0  0  0  0  0  0
  -18.1559   25.5938  -15.1459 Cl  0  0  0  0  0  0  0  0  0  0  0  0
  -15.7887   19.6239  -12.6042 C   0  0  0  0  0  0  0  0  0  0  0  0
  -14.7329   18.5554  -13.6407 S   0  0  0  0  0  0  0  0  0  0  0  0
  -15.0053   17.0006  -12.8127 C   0  0  0  0  0  0  0  0  0  0  0  0
  -14.4558   15.8236  -13.3295 C   0  0  0  0  0  0  0  0  0  0  0  0
  -14.6634   14.6040  -12.6782 C   0  0  0  0  0  0  0  0  0  0  0  0
  -15.4320   14.5556  -11.5162 C   0  0  0  0  0  0  0  0  0  0  0  0
  -15.9939   15.7267  -11.0037 C   0  0  0  0  0  0  0  0  0  0  0  0
  -15.7818   16.9471  -11.6512 C   0  0  0  0  0  0  0  0  0  0  0  0
 12 13  1  0  0  0
 13  4  1  0  0  0
  4  5  1  0  0  0
  5  6  2  0  0  0
  5  7  1  0  0  0
  7  9  1  0  0  0
  9 10  1  0  0  0
  9 11  1  0  0  0
  4  1  1  0  0  0
  1 14  1  0  0  0
 14 15  1  0  0  0
 15 16  2  0  0  0
 16 17  1  0  0  0
 17 18  2  0  0  0
 18 19  1  0  0  0
 19 20  2  0  0  0
 20 21  1  0  0  0
  1  2  1  0  0  0
  2  3  2  0  0  0
  2 22  1  0  0  0
 22 23  1  0  0  0
 23 24  1  0  0  0
 24 25  2  0  0  0
 25 26  1  0  0  0
 26 27  2  0  0  0
 27 28  1  0  0  0
 28 29  2  0  0  0
 20 15  1  0  0  0
 29 24  1  0  0  0
  7  8  1  0  0  0
M  END
> <minimizedAffinity>
-8.04509

$$$$
Molecule_5


 26 27  0  0  0  0  0  0  0  0999 V2000
  -15.2090   18.6943  -13.7049 N   0  0  0  0  0  0  0  0  0  0  0  0
  -16.1702   19.2983  -14.5063 C   0  0  0  0  0  0  0  0  0  0  0  0
  -16.7564   18.7752  -15.4468 O   0  0  0  0  0  0  0  0  0  0  0  0
  -14.7685   19.2732  -13.0014 H   0  0  0  0  0  0  0  0  0  0  0  0
  -14.7241   15.1751  -12.6564 C   0  0  0  0  0  0  0  0  0  0  0  0
  -13.9795   14.6592  -13.7221 C   0  0  0  0  0  0  0  0  0  0  0  0
  -13.6231   15.4816  -14.7893 C   0  0  0  0  0  0  0  0  0  0  0  0
  -14.0106   16.8244  -14.8074 C   0  0  0  0  0  0  0  0  0  0  0  0
  -14.7600   17.3582  -13.7590 C   0  0  0  0  0  0  0  0  0  0  0  0
  -15.1131   16.5248  -12.6887 C   0  0  0  0  0  0  0  0  0  0  0  0
  -15.1314   14.2934  -11.5021 C   0  0  0  0  0  0  0  0  0  0  0  0
  -16.9654   14.7103  -10.0590 C   0  0  0  0  0  0  0  0  0  0  0  0
  -16.5517   14.2595  -11.3440 O   0  0  0  0  0  0  0  0  0  0  0  0
  -16.4311   20.7505  -14.0821 C   0  0  0  0  0  0  0  0  0  0  0  0
  -17.7840   21.0122  -13.7171 O   0  0  0  0  0  0  0  0  0  0  0  0
  -18.0222   20.6803  -12.4118 C   0  0  0  0  0  0  0  0  0  0  0  0
  -18.2449   19.3466  -12.0853 C   0  0  0  0  0  0  0  0  0  0  0  0
  -18.4619   18.9819  -10.7526 C   0  0  0  0  0  0  0  0  0  0  0  0
  -18.4408   19.9343   -9.7112 C   0  0  0  0  0  0  0  0  0  0  0  0
  -18.1986   21.2740  -10.0670 C   0  0  0  0  0  0  0  0  0  0  0  0
  -17.9829   21.6421  -11.4031 C   0  0  0  0  0  0  0  0  0  0  0  0
  -17.6601   23.4703  -11.7938 Br  0  0  0  0  0  0  0  0  0  0  0  0
  -18.6812   19.4920   -8.2566 C   0  0  0  0  0  0  0  0  0  0  0  0
  -19.4538   20.5271   -7.4081 C   0  0  0  0  0  0  0  0  0  0  0  0
  -19.5019   18.1866   -8.2513 C   0  0  0  0  0  0  0  0  0  0  0  0
  -17.3308   19.2474   -7.5477 C   0  0  0  0  0  0  0  0  0  0  0  0
 12 13  1  0  0  0
 13 11  1  0  0  0
 11  5  1  0  0  0
  5  6  2  0  0  0
  6  7  1  0  0  0
  7  8  2  0  0  0
  8  9  1  0  0  0
  9  1  1  0  0  0
  1  2  1  0  0  0
  2  3  2  0  0  0
  2 14  1  0  0  0
 14 15  1  0  0  0
 15 16  1  0  0  0
 16 17  2  0  0  0
 17 18  1  0  0  0
 18 19  2  0  0  0
 19 23  1  0  0  0
 23 24  1  0  0  0
 23 25  1  0  0  0
 23 26  1  0  0  0
 19 20  1  0  0  0
 20 21  2  0  0  0
 21 22  1  0  0  0
  9 10  2  0  0  0
 10  5  1  0  0  0
 21 16  1  0  0  0
  1  4  1  0  0  0
M  END
> <minimizedAffinity>
-8.15975

$$$$
Molecule_6


 32 35  0  0  0  0  0  0  0  0999 V2000
  -17.3043   19.6620  -14.3853 N   0  0  0  0  0  0  0  0  0  0  0  0
  -16.4897   18.8380  -15.0885 N   0  0  0  0  0  0  0  0  0  0  0  0
  -15.3891   18.6955  -14.3547 C   0  0  0  0  0  0  0  0  0  0  0  0
  -15.4618   19.4833  -13.1824 C   0  0  0  0  0  0  0  0  0  0  0  0
  -16.6816   20.1213  -13.2189 C   0  0  0  0  0  0  0  0  0  0  0  0
  -18.6378   19.8789  -14.8409 C   0  0  0  0  0  0  0  0  0  0  0  0
  -20.0363   19.2861  -14.1201 S   0  0  0  0  0  0  0  0  0  0  0  0
  -17.9677   22.8256  -15.2373 O   0  0  0  0  0  0  0  0  0  0  0  0
  -17.9084   21.9394  -16.0820 C   0  0  0  0  0  0  0  0  0  0  0  0
  -18.6044   20.7428  -15.9480 N   0  0  0  0  0  0  0  0  0  0  0  0
  -18.9363   20.3540  -16.8257 H   0  0  0  0  0  0  0  0  0  0  0  0
  -17.2873   22.1067  -17.3829 C   0  0  0  0  0  0  0  0  0  0  0  0
  -17.0527   23.2215  -18.1700 C   0  0  0  0  0  0  0  0  0  0  0  0
  -16.4188   22.7631  -19.3503 C   0  0  0  0  0  0  0  0  0  0  0  0
  -16.2878   21.4031  -19.2099 C   0  0  0  0  0  0  0  0  0  0  0  0
  -16.8127   20.9951  -18.0279 O   0  0  0  0  0  0  0  0  0  0  0  0
  -14.3008   17.9280  -14.6165 N   0  0  0  0  0  0  0  0  0  0  0  0
  -13.5618   18.3480  -15.1687 H   0  0  0  0  0  0  0  0  0  0  0  0
  -14.0049   16.5808  -14.3164 C   0  0  0  0  0  0  0  0  0  0  0  0
  -13.0985   15.7935  -15.0498 C   0  0  0  0  0  0  0  0  0  0  0  0
  -12.8699   14.4529  -14.7228 C   0  0  0  0  0  0  0  0  0  0  0  0
  -13.5432   13.8739  -13.6517 C   0  0  0  0  0  0  0  0  0  0  0  0
  -14.4440   14.6274  -12.9113 C   0  0  0  0  0  0  0  0  0  0  0  0
  -14.6768   15.9658  -13.2458 C   0  0  0  0  0  0  0  0  0  0  0  0
  -17.2533   21.0614  -12.4126 N   0  0  0  0  0  0  0  0  0  0  0  0
  -16.9603   22.0349  -12.5291 H   0  0  0  0  0  0  0  0  0  0  0  0
  -17.8685   20.8491  -11.1593 C   0  0  0  0  0  0  0  0  0  0  0  0
  -17.4431   19.8634  -10.2587 C   0  0  0  0  0  0  0  0  0  0  0  0
  -18.0821   19.6946   -9.0244 C   0  0  0  0  0  0  0  0  0  0  0  0
  -19.1531   20.5135   -8.6729 C   0  0  0  0  0  0  0  0  0  0  0  0
  -19.5889   21.4994   -9.5559 C   0  0  0  0  0  0  0  0  0  0  0  0
  -18.9523   21.6643  -10.7896 C   0  0  0  0  0  0  0  0  0  0  0  0
  8  9  2  0  0  0
  9 10  1  0  0  0
 10  6  1  0  0  0
  6  7  2  0  0  0
  6  1  1  0  0  0
  1  2  1  0  0  0
  2  3  2  0  0  0
  3 17  1  0  0  0
 17 19  1  0  0  0
 19 20  2  0  0  0
 20 21  1  0  0  0
 21 22  2  0  0  0
 22 23  1  0  0  0
 23 24  2  0  0  0
  3  4  1  0  0  0
  4  5  2  0  0  0
  5 25  1  0  0  0
 25 27  1  0  0  0
 27 28  2  0  0  0
 28 29  1  0  0  0
 29 30  2  0  0  0
 30 31  1  0  0  0
 31 32  2  0  0  0
  9 12  1  0  0  0
 12 13  2  0  0  0
 13 14  1  0  0  0
 14 15  2  0  0  0
 15 16  1  0  0  0
  5  1  1  0  0  0
 32 27  1  0  0  0
 16 12  1  0  0  0
 24 19  1  0  0  0
 10 11  1  0  0  0
 17 18  1  0  0  0
 25 26  1  0  0  0
M  END
> <minimizedAffinity>
-8.33226

$$$$
Molecule_7


 34 37  0  0  0  0  0  0  0  0999 V2000
  -15.6226   19.7280  -16.8775 C   0  0  0  0  0  0  0  0  0  0  0  0
  -16.2695   20.5159  -17.8470 C   0  0  0  0  0  0  0  0  0  0  0  0
  -15.9561   20.3689  -19.1968 C   0  0  0  0  0  0  0  0  0  0  0  0
  -15.0046   19.4325  -19.5862 C   0  0  0  0  0  0  0  0  0  0  0  0
  -14.3770   18.6236  -18.6335 C   0  0  0  0  0  0  0  0  0  0  0  0
  -14.6847   18.7446  -17.2732 C   0  0  0  0  0  0  0  0  0  0  0  0
  -17.2698   20.1663  -15.1374 N   0  0  0  0  0  0  0  0  0  0  0  0
  -15.9362   19.9375  -15.4278 C   0  0  0  0  0  0  0  0  0  0  0  0
  -15.0044   19.9537  -14.6297 O   0  0  0  0  0  0  0  0  0  0  0  0
  -17.8973   20.3004  -15.9190 H   0  0  0  0  0  0  0  0  0  0  0  0
  -17.9114   23.1736  -11.2984 C   0  0  0  0  0  0  0  0  0  0  0  0
  -18.1497   21.8457  -11.9543 C   0  0  0  0  0  0  0  0  0  0  0  0
  -18.9518   20.8829  -11.3363 C   0  0  0  0  0  0  0  0  0  0  0  0
  -19.1938   19.6639  -11.9672 C   0  0  0  0  0  0  0  0  0  0  0  0
  -18.6447   19.3975  -13.2245 C   0  0  0  0  0  0  0  0  0  0  0  0
  -17.8492   20.3486  -13.8629 C   0  0  0  0  0  0  0  0  0  0  0  0
  -17.6147   21.5747  -13.2230 C   0  0  0  0  0  0  0  0  0  0  0  0
  -14.0974   17.9107  -16.2924 N   0  0  0  0  0  0  0  0  0  0  0  0
  -14.5966   16.7453  -15.7468 C   0  0  0  0  0  0  0  0  0  0  0  0
  -15.6356   16.1613  -16.0183 O   0  0  0  0  0  0  0  0  0  0  0  0
  -13.2172   18.2580  -15.8971 H   0  0  0  0  0  0  0  0  0  0  0  0
  -13.6685   16.1513  -14.6929 C   0  0  0  0  0  0  0  0  0  0  0  0
  -12.4634   16.2151  -14.9341 O   0  0  0  0  0  0  0  0  0  0  0  0
  -14.2125   15.4959  -13.4994 C   0  0  0  0  0  0  0  0  0  0  0  0
  -13.9854   14.1621  -13.1690 C   0  0  0  0  0  0  0  0  0  0  0  0
  -13.1859   13.1104  -13.8552 C   0  0  0  0  0  0  0  0  0  0  0  0
  -14.6604   13.8917  -12.0083 N   0  0  0  0  0  0  0  0  0  0  0  0
  -15.3275   15.0065  -11.5656 C   0  0  0  0  0  0  0  0  0  0  0  0
  -16.1356   15.1674  -10.4327 C   0  0  0  0  0  0  0  0  0  0  0  0
  -16.6984   16.4241  -10.2065 C   0  0  0  0  0  0  0  0  0  0  0  0
  -16.4579   17.4771  -11.0809 C   0  0  0  0  0  0  0  0  0  0  0  0
  -15.6483   17.2982  -12.2102 C   0  0  0  0  0  0  0  0  0  0  0  0
  -15.0648   16.0368  -12.4714 C   0  0  0  0  0  0  0  0  0  0  0  0
  -14.6730   12.9975  -11.5371 H   0  0  0  0  0  0  0  0  0  0  0  0
 11 12  1  0  0  0
 12 13  2  0  0  0
 13 14  1  0  0  0
 14 15  2  0  0  0
 15 16  1  0  0  0
 16  7  1  0  0  0
  7  8  1  0  0  0
  8  9  2  0  0  0
  8  1  1  0  0  0
  1  2  2  0  0  0
  2  3  1  0  0  0
  3  4  2  0  0  0
  4  5  1  0  0  0
  5  6  2  0  0  0
  6 18  1  0  0  0
 18 19  1  0  0  0
 19 20  2  0  0  0
 19 22  1  0  0  0
 22 23  2  0  0  0
 22 24  1  0  0  0
 24 25  2  0  0  0
 25 26  1  0  0  0
 25 27  1  0  0  0
 27 28  1  0  0  0
 28 29  2  0  0  0
 29 30  1  0  0  0
 30 31  2  0  0  0
 31 32  1  0  0  0
 32 33  2  0  0  0
 16 17  2  0  0  0
 17 12  1  0  0  0
  6  1  1  0  0  0
 33 24  1  0  0  0
 33 28  1  0  0  0
  7 10  1  0  0  0
 18 21  1  0  0  0
 27 34  1  0  0  0
M  END
> <minimizedAffinity>
-9.78224

$$$$
Molecule_8


 28 29  0  0  0  0  0  0  0  0999 V2000
  -15.9577   19.7140  -14.4363 C   0  0  0  0  0  0  0  0  0  0  0  0
  -15.1896   18.9604  -13.3520 C   0  0  0  0  0  0  0  0  0  0  0  0
  -14.0888   19.3101  -12.9374 O   0  0  0  0  0  0  0  0  0  0  0  0
  -15.9031   17.8937  -12.8892 O   0  0  0  0  0  0  0  0  0  0  0  0
  -15.3283   15.6055  -12.4535 C   0  0  0  0  0  0  0  0  0  0  0  0
  -15.3511   14.5961  -11.2991 C   0  0  0  0  0  0  0  0  0  0  0  0
  -16.5946   14.7713  -10.4159 C   0  0  0  0  0  0  0  0  0  0  0  0
  -17.1540   16.2041  -10.4157 C   0  0  0  0  0  0  0  0  0  0  0  0
  -17.9800   16.4645   -9.1563 C   0  0  0  0  0  0  0  0  0  0  0  0
  -16.0220   17.2271  -10.5655 C   0  0  0  0  0  0  0  0  0  0  0  0
  -15.2712   17.0530  -11.8972 C   0  0  0  0  0  0  0  0  0  0  0  0
  -14.6831   15.7105  -14.9223 C   0  0  0  0  0  0  0  0  0  0  0  0
  -14.2088   15.3541  -13.5074 C   0  0  0  0  0  0  0  0  0  0  0  0
  -13.6565   13.9237  -13.5070 C   0  0  0  0  0  0  0  0  0  0  0  0
  -16.6485   20.8912  -14.0143 O   0  0  0  0  0  0  0  0  0  0  0  0
  -17.9981   20.7547  -13.9570 C   0  0  0  0  0  0  0  0  0  0  0  0
  -18.7431   20.6312  -14.9179 O   0  0  0  0  0  0  0  0  0  0  0  0
  -18.4719   20.7709  -12.5468 C   0  0  0  0  0  0  0  0  0  0  0  0
  -18.3601   21.9659  -11.8245 C   0  0  0  0  0  0  0  0  0  0  0  0
  -18.7924   22.0387  -10.4932 C   0  0  0  0  0  0  0  0  0  0  0  0
  -19.3457   20.9165   -9.8717 C   0  0  0  0  0  0  0  0  0  0  0  0
  -19.4574   19.7243  -10.5948 C   0  0  0  0  0  0  0  0  0  0  0  0
  -19.0260   19.6458  -11.9236 C   0  0  0  0  0  0  0  0  0  0  0  0
  -19.8041   20.8405   -8.5868 O   0  0  0  0  0  0  0  0  0  0  0  0
  -19.0672   20.0500   -7.6671 C   0  0  0  0  0  0  0  0  0  0  0  0
  -19.1454   20.6218   -6.4445 F   0  0  0  0  0  0  0  0  0  0  0  0
  -19.5784   18.8016   -7.5794 F   0  0  0  0  0  0  0  0  0  0  0  0
  -17.7646   19.9851   -8.0188 F   0  0  0  0  0  0  0  0  0  0  0  0
 12 13  1  0  0  0
 13 14  1  0  0  0
 13  5  1  0  0  0
  5  6  1  0  0  0
  6  7  1  0  0  0
  7  8  1  0  0  0
  8  9  1  0  0  0
  8 10  1  0  0  0
 10 11  1  0  0  0
 11  4  1  0  0  0
  4  2  1  0  0  0
  2  3  2  0  0  0
  2  1  1  0  0  0
  1 15  1  0  0  0
 15 16  1  0  0  0
 16 17  2  0  0  0
 16 18  1  0  0  0
 18 19  2  0  0  0
 19 20  1  0  0  0
 20 21  2  0  0  0
 21 24  1  0  0  0
 24 25  1  0  0  0
 25 26  1  0  0  0
 25 27  1  0  0  0
 25 28  1  0  0  0
 21 22  1  0  0  0
 22 23  2  0  0  0
 11  5  1  0  0  0
 23 18  1  0  0  0
M  END
> <minimizedAffinity>
-8.79919

$$$$
Molecule_9


 29 32  0  0  0  0  0  0  0  0999 V2000
  -17.0457   20.6981  -13.3909 N   0  0  0  0  0  0  0  0  0  0  0  0
  -16.5148   21.9268  -13.7271 C   0  0  0  0  0  0  0  0  0  0  0  0
  -15.2087   21.8866  -13.6719 N   0  0  0  0  0  0  0  0  0  0  0  0
  -14.8509   20.6326  -13.2718 N   0  0  0  0  0  0  0  0  0  0  0  0
  -15.9463   19.9190  -13.0839 C   0  0  0  0  0  0  0  0  0  0  0  0
  -15.8851   18.5612  -12.6299 C   0  0  0  0  0  0  0  0  0  0  0  0
  -15.3203   17.4845  -13.3018 C   0  0  0  0  0  0  0  0  0  0  0  0
  -15.4698   16.3360  -12.4848 C   0  0  0  0  0  0  0  0  0  0  0  0
  -15.1279   14.9764  -12.5816 C   0  0  0  0  0  0  0  0  0  0  0  0
  -15.4595   14.1240  -11.5181 C   0  0  0  0  0  0  0  0  0  0  0  0
  -16.1155   14.6095  -10.3830 C   0  0  0  0  0  0  0  0  0  0  0  0
  -16.4617   15.9600  -10.2700 C   0  0  0  0  0  0  0  0  0  0  0  0
  -16.1187   16.7789  -11.3429 C   0  0  0  0  0  0  0  0  0  0  0  0
  -16.3642   18.1128  -11.4284 O   0  0  0  0  0  0  0  0  0  0  0  0
  -18.8348   19.2580  -14.3946 C   0  0  0  0  0  0  0  0  0  0  0  0
  -18.4611   20.3471  -13.3867 C   0  0  0  0  0  0  0  0  0  0  0  0
  -19.0142   20.0972  -11.9833 C   0  0  0  0  0  0  0  0  0  0  0  0
  -17.4384   23.3140  -14.1924 S   0  0  0  0  0  0  0  0  0  0  0  0
  -17.9325   22.9258  -15.9135 C   0  0  0  0  0  0  0  0  0  0  0  0
  -18.6221   24.1158  -16.5752 C   0  0  0  0  0  0  0  0  0  0  0  0
  -16.8008   22.3412  -16.7767 C   0  0  0  0  0  0  0  0  0  0  0  0
  -15.9262   23.0722  -17.2367 O   0  0  0  0  0  0  0  0  0  0  0  0
  -16.9673   21.0028  -17.0629 N   0  0  0  0  0  0  0  0  0  0  0  0
  -17.6967   20.4918  -16.5845 H   0  0  0  0  0  0  0  0  0  0  0  0
  -16.1506   20.1974  -17.8104 C   0  0  0  0  0  0  0  0  0  0  0  0
  -15.1892   19.5050  -17.2421 N   0  0  0  0  0  0  0  0  0  0  0  0
  -14.5092   18.7858  -18.2062 C   0  0  0  0  0  0  0  0  0  0  0  0
  -14.9748   18.9339  -19.4943 C   0  0  0  0  0  0  0  0  0  0  0  0
  -16.3089   20.0078  -19.4958 S   0  0  0  0  0  0  0  0  0  0  0  0
 15 16  1  0  0  0
 16 17  1  0  0  0
 16  1  1  0  0  0
  1  2  1  0  0  0
  2 18  1  0  0  0
 18 19  1  0  0  0
 19 20  1  0  0  0
 19 21  1  0  0  0
 21 22  2  0  0  0
 21 23  1  0  0  0
 23 25  1  0  0  0
 25 26  2  0  0  0
 26 27  1  0  0  0
 27 28  2  0  0  0
 28 29  1  0  0  0
  2  3  2  0  0  0
  3  4  1  0  0  0
  4  5  2  0  0  0
  5  6  1  0  0  0
  6  7  2  0  0  0
  7  8  1  0  0  0
  8  9  2  0  0  0
  9 10  1  0  0  0
 10 11  2  0  0  0
 11 12  1  0  0  0
 12 13  2  0  0  0
 13 14  1  0  0  0
  5  1  1  0  0  0
 14  6  1  0  0  0
 29 25  1  0  0  0
 13  8  1  0  0  0
 23 24  1  0  0  0
M  END
> <minimizedAffinity>
-8.38252

$$$$
