


 44 48  0  0  0  0  0  0  0  0999 V2000
   -8.2230   19.5559  -10.1452 C   0  0  0  0  0  0  0  0  0  0  0  0
   -7.3325   18.5143  -10.1014 N   0  0  0  0  0  0  0  0  0  0  0  0
   -6.6582   18.0827  -11.2127 C   0  0  0  0  0  0  0  0  0  0  0  0
   -7.0159   18.8096  -12.3522 C   0  0  0  0  0  0  0  0  0  0  0  0
   -6.6339   18.6617  -13.6611 C   0  0  0  0  0  0  0  0  0  0  0  0
   -7.3150   19.6298  -14.3436 N   0  0  0  0  0  0  0  0  0  0  0  0
   -8.1175   20.3850  -13.5722 N   0  0  0  0  0  0  0  0  0  0  0  0
   -7.9528   19.8738  -12.3509 C   0  0  0  0  0  0  0  0  0  0  0  0
   -8.5802   20.2795  -11.2333 N   0  0  0  0  0  0  0  0  0  0  0  0
   -7.2819   19.8302  -15.3355 H   0  0  0  0  0  0  0  0  0  0  0  0
   -8.8632   19.9816   -8.9835 N   0  0  0  0  0  0  0  0  0  0  0  0
   -9.0939   20.9649   -9.0734 H   0  0  0  0  0  0  0  0  0  0  0  0
   -9.1765   20.4504   -6.6439 C   0  0  0  0  0  0  0  0  0  0  0  0
   -9.2130   20.0712   -5.3009 C   0  0  0  0  0  0  0  0  0  0  0  0
   -9.0881   18.7223   -4.9179 C   0  0  0  0  0  0  0  0  0  0  0  0
   -8.9241   17.7572   -5.9373 C   0  0  0  0  0  0  0  0  0  0  0  0
   -8.8854   16.2735   -5.6869 C   0  0  0  0  0  0  0  0  0  0  0  0
   -8.8516   18.1743   -7.2904 C   0  0  0  0  0  0  0  0  0  0  0  0
   -8.9397   19.5165   -7.6637 C   0  0  0  0  0  0  0  0  0  0  0  0
   -9.1310   18.4287   -3.4229 C   0  0  0  0  0  0  0  0  0  0  0  0
   -8.1338   19.2430   -2.5900 C   0  0  0  0  0  0  0  0  0  0  0  0
   -8.1830   18.7763   -1.1298 C   0  0  0  0  0  0  0  0  0  0  0  0
   -9.5363   18.7327   -0.5398 N   0  0  0  0  0  0  0  0  0  0  0  0
   -9.8166   17.4336    0.0651 C   0  0  0  0  0  0  0  0  0  0  0  0
  -10.5916   19.1527   -1.4640 C   0  0  0  0  0  0  0  0  0  0  0  0
  -10.5506   18.4577   -2.8279 C   0  0  0  0  0  0  0  0  0  0  0  0
   -9.2876   21.7749   -7.0058 O   0  0  0  0  0  0  0  0  0  0  0  0
   -8.4637   23.8565   -6.2079 C   0  0  0  0  0  0  0  0  0  0  0  0
   -9.3665   22.6692   -5.8820 C   0  0  0  0  0  0  0  0  0  0  0  0
  -10.8043   23.1479   -5.6821 C   0  0  0  0  0  0  0  0  0  0  0  0
   -5.7784   16.9871  -11.0499 N   0  0  0  0  0  0  0  0  0  0  0  0
   -4.8428   17.4170  -11.0870 H   0  0  0  0  0  0  0  0  0  0  0  0
   -5.8799   15.9498  -10.1038 C   0  0  0  0  0  0  0  0  0  0  0  0
   -5.9988   16.3039   -8.7473 C   0  0  0  0  0  0  0  0  0  0  0  0
   -5.9685   15.3421   -7.7375 C   0  0  0  0  0  0  0  0  0  0  0  0
   -5.7869   14.0014   -8.0619 C   0  0  0  0  0  0  0  0  0  0  0  0
   -5.6749   13.6225   -9.3989 C   0  0  0  0  0  0  0  0  0  0  0  0
   -5.7655   14.5840  -10.4174 C   0  0  0  0  0  0  0  0  0  0  0  0
   -5.7133   14.0080  -12.1049 S   0  0  0  0  0  0  0  0  0  0  0  0
   -5.5211   15.1711  -12.9559 O   0  0  0  0  0  0  0  0  0  0  0  0
   -4.7528   12.9206  -12.1333 O   0  0  0  0  0  0  0  0  0  0  0  0
   -7.3498   13.3771  -12.5014 C   0  0  0  0  0  0  0  0  0  0  0  0
   -8.4629   14.3769  -12.1944 C   0  0  0  0  0  0  0  0  0  0  0  0
   -7.6335   12.0152  -11.8764 C   0  0  0  0  0  0  0  0  0  0  0  0
 28 29  1  0  0  0
 29 30  1  0  0  0
 29 27  1  0  0  0
 27 13  1  0  0  0
 13 14  2  0  0  0
 14 15  1  0  0  0
 15 20  1  0  0  0
 20 21  1  0  0  0
 21 22  1  0  0  0
 22 23  1  0  0  0
 23 24  1  0  0  0
 23 25  1  0  0  0
 25 26  1  0  0  0
 15 16  2  0  0  0
 16 17  1  0  0  0
 16 18  1  0  0  0
 18 19  2  0  0  0
 19 11  1  0  0  0
 11  1  1  0  0  0
  1  2  1  0  0  0
  2  3  2  0  0  0
  3 31  1  0  0  0
 31 33  1  0  0  0
 33 34  2  0  0  0
 34 35  1  0  0  0
 35 36  2  0  0  0
 36 37  1  0  0  0
 37 38  2  0  0  0
 38 39  1  0  0  0
 39 40  2  0  0  0
 39 41  2  0  0  0
 39 42  1  0  0  0
 42 43  1  0  0  0
 42 44  1  0  0  0
  3  4  1  0  0  0
  4  5  2  0  0  0
  5  6  1  0  0  0
  6  7  1  0  0  0
  7  8  2  0  0  0
  8  9  1  0  0  0
 19 13  1  0  0  0
 26 20  1  0  0  0
  9  1  2  0  0  0
 38 33  1  0  0  0
  8  4  1  0  0  0
 11 12  1  0  0  0
 31 32  1  0  0  0
  6 10  1  0  0  0
M  END
> <minimizedAffinity>
-10.31775

$$$$



 44 48  0  0  0  0  0  0  0  0999 V2000
   -8.7071   19.3634   -9.5869 C   0  0  0  0  0  0  0  0  0  0  0  0
   -8.0299   18.1715   -9.6131 N   0  0  0  0  0  0  0  0  0  0  0  0
   -7.3073   17.7659  -10.7037 C   0  0  0  0  0  0  0  0  0  0  0  0
   -7.3810   18.6915  -11.7490 C   0  0  0  0  0  0  0  0  0  0  0  0
   -6.8677   18.6446  -13.0200 C   0  0  0  0  0  0  0  0  0  0  0  0
   -7.2722   19.8078  -13.6117 N   0  0  0  0  0  0  0  0  0  0  0  0
   -8.0186   20.5974  -12.8189 N   0  0  0  0  0  0  0  0  0  0  0  0
   -8.1051   19.9085  -11.6796 C   0  0  0  0  0  0  0  0  0  0  0  0
   -8.7875   20.2789  -10.5821 N   0  0  0  0  0  0  0  0  0  0  0  0
   -7.0775   20.1260  -14.5530 H   0  0  0  0  0  0  0  0  0  0  0  0
   -9.4039   19.7500   -8.4442 N   0  0  0  0  0  0  0  0  0  0  0  0
   -9.8917   20.6190   -8.6315 H   0  0  0  0  0  0  0  0  0  0  0  0
   -9.2430   20.5187   -6.1694 C   0  0  0  0  0  0  0  0  0  0  0  0
   -9.0992   20.3012   -4.7979 C   0  0  0  0  0  0  0  0  0  0  0  0
   -9.0956   19.0004   -4.2599 C   0  0  0  0  0  0  0  0  0  0  0  0
   -9.2427   17.9145   -5.1524 C   0  0  0  0  0  0  0  0  0  0  0  0
   -9.3644   16.4800   -4.7127 C   0  0  0  0  0  0  0  0  0  0  0  0
   -9.3479   18.1623   -6.5443 C   0  0  0  0  0  0  0  0  0  0  0  0
   -9.3149   19.4520   -7.0777 C   0  0  0  0  0  0  0  0  0  0  0  0
   -8.9202   18.8847   -2.7502 C   0  0  0  0  0  0  0  0  0  0  0  0
   -7.7059   19.6390   -2.1954 C   0  0  0  0  0  0  0  0  0  0  0  0
   -7.5635   19.3501   -0.6958 C   0  0  0  0  0  0  0  0  0  0  0  0
   -8.7929   19.5633    0.0945 N   0  0  0  0  0  0  0  0  0  0  0  0
   -9.1213   18.3923    0.9027 C   0  0  0  0  0  0  0  0  0  0  0  0
   -9.9308   20.0212   -0.7052 C   0  0  0  0  0  0  0  0  0  0  0  0
  -10.2049   19.1792   -1.9546 C   0  0  0  0  0  0  0  0  0  0  0  0
   -9.2329   21.7958   -6.6855 O   0  0  0  0  0  0  0  0  0  0  0  0
   -8.4517   23.9679   -6.1198 C   0  0  0  0  0  0  0  0  0  0  0  0
   -9.3559   22.8185   -5.6816 C   0  0  0  0  0  0  0  0  0  0  0  0
  -10.8032   23.3013   -5.5876 C   0  0  0  0  0  0  0  0  0  0  0  0
   -6.6655   16.5081  -10.6223 N   0  0  0  0  0  0  0  0  0  0  0  0
   -6.3281   16.4680   -9.6496 H   0  0  0  0  0  0  0  0  0  0  0  0
   -7.1506   15.2749  -11.0970 C   0  0  0  0  0  0  0  0  0  0  0  0
   -7.8097   15.2600  -12.3399 C   0  0  0  0  0  0  0  0  0  0  0  0
   -8.4371   14.1097  -12.8186 C   0  0  0  0  0  0  0  0  0  0  0  0
   -8.4453   12.9521  -12.0470 C   0  0  0  0  0  0  0  0  0  0  0  0
   -7.7923   12.9373  -10.8154 C   0  0  0  0  0  0  0  0  0  0  0  0
   -7.1104   14.0772  -10.3617 C   0  0  0  0  0  0  0  0  0  0  0  0
   -6.2159   13.9478   -8.8237 S   0  0  0  0  0  0  0  0  0  0  0  0
   -6.2583   12.5542   -8.4116 O   0  0  0  0  0  0  0  0  0  0  0  0
   -4.9392   14.6027   -9.0402 O   0  0  0  0  0  0  0  0  0  0  0  0
   -7.1550   14.8526   -7.5856 C   0  0  0  0  0  0  0  0  0  0  0  0
   -8.6180   15.0511   -7.9770 C   0  0  0  0  0  0  0  0  0  0  0  0
   -6.5003   16.1698   -7.1828 C   0  0  0  0  0  0  0  0  0  0  0  0
 28 29  1  0  0  0
 29 30  1  0  0  0
 29 27  1  0  0  0
 27 13  1  0  0  0
 13 14  2  0  0  0
 14 15  1  0  0  0
 15 20  1  0  0  0
 20 21  1  0  0  0
 21 22  1  0  0  0
 22 23  1  0  0  0
 23 24  1  0  0  0
 23 25  1  0  0  0
 25 26  1  0  0  0
 15 16  2  0  0  0
 16 17  1  0  0  0
 16 18  1  0  0  0
 18 19  2  0  0  0
 19 11  1  0  0  0
 11  1  1  0  0  0
  1  2  1  0  0  0
  2  3  2  0  0  0
  3 31  1  0  0  0
 31 33  1  0  0  0
 33 34  2  0  0  0
 34 35  1  0  0  0
 35 36  2  0  0  0
 36 37  1  0  0  0
 37 38  2  0  0  0
 38 39  1  0  0  0
 39 40  2  0  0  0
 39 41  2  0  0  0
 39 42  1  0  0  0
 42 43  1  0  0  0
 42 44  1  0  0  0
  3  4  1  0  0  0
  4  5  2  0  0  0
  5  6  1  0  0  0
  6  7  1  0  0  0
  7  8  2  0  0  0
  8  9  1  0  0  0
 19 13  1  0  0  0
 26 20  1  0  0  0
  9  1  2  0  0  0
 38 33  1  0  0  0
  8  4  1  0  0  0
 11 12  1  0  0  0
 31 32  1  0  0  0
  6 10  1  0  0  0
M  END
> <minimizedAffinity>
-9.88187

$$$$



 44 48  0  0  0  0  0  0  0  0999 V2000
   -8.6198   19.0599   -9.1917 C   0  0  0  0  0  0  0  0  0  0  0  0
   -7.6763   18.0723   -9.3121 N   0  0  0  0  0  0  0  0  0  0  0  0
   -6.9422   17.8992  -10.4554 C   0  0  0  0  0  0  0  0  0  0  0  0
   -7.2994   18.8185  -11.4463 C   0  0  0  0  0  0  0  0  0  0  0  0
   -6.8656   18.9486  -12.7409 C   0  0  0  0  0  0  0  0  0  0  0  0
   -7.5743   19.9992  -13.2513 N   0  0  0  0  0  0  0  0  0  0  0  0
   -8.4422   20.5503  -12.3839 N   0  0  0  0  0  0  0  0  0  0  0  0
   -8.2919   19.8172  -11.2793 C   0  0  0  0  0  0  0  0  0  0  0  0
   -8.9782   19.9659  -10.1329 N   0  0  0  0  0  0  0  0  0  0  0  0
   -7.5182   20.3920  -14.1829 H   0  0  0  0  0  0  0  0  0  0  0  0
   -9.3213   19.2190   -7.9987 N   0  0  0  0  0  0  0  0  0  0  0  0
  -10.1368   18.6166   -8.0108 H   0  0  0  0  0  0  0  0  0  0  0  0
   -9.6067   19.7985   -5.6804 C   0  0  0  0  0  0  0  0  0  0  0  0
   -9.7302   20.7251   -4.6436 C   0  0  0  0  0  0  0  0  0  0  0  0
   -9.5572   22.1037   -4.8701 C   0  0  0  0  0  0  0  0  0  0  0  0
   -9.2528   22.5256   -6.1841 C   0  0  0  0  0  0  0  0  0  0  0  0
   -8.9362   23.9500   -6.5538 C   0  0  0  0  0  0  0  0  0  0  0  0
   -9.1715   21.5670   -7.2255 C   0  0  0  0  0  0  0  0  0  0  0  0
   -9.3793   20.2045   -7.0039 C   0  0  0  0  0  0  0  0  0  0  0  0
   -9.7273   23.0217   -3.6653 C   0  0  0  0  0  0  0  0  0  0  0  0
  -11.1067   22.9426   -3.0002 C   0  0  0  0  0  0  0  0  0  0  0  0
  -11.1999   23.9918   -1.8853 C   0  0  0  0  0  0  0  0  0  0  0  0
  -10.0842   23.9668   -0.9178 N   0  0  0  0  0  0  0  0  0  0  0  0
   -9.4800   25.2868   -0.7610 C   0  0  0  0  0  0  0  0  0  0  0  0
   -9.0879   22.9315   -1.1999 C   0  0  0  0  0  0  0  0  0  0  0  0
   -8.5794   22.9205   -2.6443 C   0  0  0  0  0  0  0  0  0  0  0  0
   -9.7902   18.4530   -5.4490 O   0  0  0  0  0  0  0  0  0  0  0  0
  -11.6553   17.5119   -4.3158 C   0  0  0  0  0  0  0  0  0  0  0  0
  -10.2867   18.1628   -4.1307 C   0  0  0  0  0  0  0  0  0  0  0  0
   -9.3457   17.1997   -3.4072 C   0  0  0  0  0  0  0  0  0  0  0  0
   -6.0106   16.8349  -10.4702 N   0  0  0  0  0  0  0  0  0  0  0  0
   -5.0994   17.3084  -10.5536 H   0  0  0  0  0  0  0  0  0  0  0  0
   -5.9838   15.7178   -9.6141 C   0  0  0  0  0  0  0  0  0  0  0  0
   -5.6896   15.9351   -8.2556 C   0  0  0  0  0  0  0  0  0  0  0  0
   -5.5104   14.8727   -7.3695 C   0  0  0  0  0  0  0  0  0  0  0  0
   -5.5917   13.5630   -7.8317 C   0  0  0  0  0  0  0  0  0  0  0  0
   -5.8904   13.3197   -9.1715 C   0  0  0  0  0  0  0  0  0  0  0  0
   -6.1295   14.3887  -10.0491 C   0  0  0  0  0  0  0  0  0  0  0  0
   -6.6039   13.9939  -11.7228 S   0  0  0  0  0  0  0  0  0  0  0  0
   -5.9761   14.9728  -12.5954 O   0  0  0  0  0  0  0  0  0  0  0  0
   -6.3285   12.5803  -11.9002 O   0  0  0  0  0  0  0  0  0  0  0  0
   -8.3736   14.2842  -11.8555 C   0  0  0  0  0  0  0  0  0  0  0  0
   -9.0984   14.1600  -10.5167 C   0  0  0  0  0  0  0  0  0  0  0  0
   -9.0400   13.4352  -12.9329 C   0  0  0  0  0  0  0  0  0  0  0  0
 28 29  1  0  0  0
 29 30  1  0  0  0
 29 27  1  0  0  0
 27 13  1  0  0  0
 13 14  2  0  0  0
 14 15  1  0  0  0
 15 20  1  0  0  0
 20 21  1  0  0  0
 21 22  1  0  0  0
 22 23  1  0  0  0
 23 24  1  0  0  0
 23 25  1  0  0  0
 25 26  1  0  0  0
 15 16  2  0  0  0
 16 17  1  0  0  0
 16 18  1  0  0  0
 18 19  2  0  0  0
 19 11  1  0  0  0
 11  1  1  0  0  0
  1  2  1  0  0  0
  2  3  2  0  0  0
  3 31  1  0  0  0
 31 33  1  0  0  0
 33 34  2  0  0  0
 34 35  1  0  0  0
 35 36  2  0  0  0
 36 37  1  0  0  0
 37 38  2  0  0  0
 38 39  1  0  0  0
 39 40  2  0  0  0
 39 41  2  0  0  0
 39 42  1  0  0  0
 42 43  1  0  0  0
 42 44  1  0  0  0
  3  4  1  0  0  0
  4  5  2  0  0  0
  5  6  1  0  0  0
  6  7  1  0  0  0
  7  8  2  0  0  0
  8  9  1  0  0  0
 19 13  1  0  0  0
 26 20  1  0  0  0
  9  1  2  0  0  0
 38 33  1  0  0  0
  8  4  1  0  0  0
 11 12  1  0  0  0
 31 32  1  0  0  0
  6 10  1  0  0  0
M  END
> <minimizedAffinity>
-9.50745

$$$$



 44 48  0  0  0  0  0  0  0  0999 V2000
   -8.6443   18.8891   -9.0106 C   0  0  0  0  0  0  0  0  0  0  0  0
   -7.9206   17.7570   -9.2841 N   0  0  0  0  0  0  0  0  0  0  0  0
   -7.2801   17.5710  -10.4805 C   0  0  0  0  0  0  0  0  0  0  0  0
   -7.4863   18.6443  -11.3524 C   0  0  0  0  0  0  0  0  0  0  0  0
   -7.0857   18.8283  -12.6512 C   0  0  0  0  0  0  0  0  0  0  0  0
   -7.5914   20.0452  -13.0119 N   0  0  0  0  0  0  0  0  0  0  0  0
   -8.2986   20.6556  -12.0442 N   0  0  0  0  0  0  0  0  0  0  0  0
   -8.2540   19.7915  -11.0286 C   0  0  0  0  0  0  0  0  0  0  0  0
   -8.8522   19.9441   -9.8344 N   0  0  0  0  0  0  0  0  0  0  0  0
   -7.4947   20.5188  -13.9016 H   0  0  0  0  0  0  0  0  0  0  0  0
   -9.2536   19.0497   -7.7682 N   0  0  0  0  0  0  0  0  0  0  0  0
   -9.9928   18.3625   -7.6702 H   0  0  0  0  0  0  0  0  0  0  0  0
   -9.3637   19.7489   -5.4681 C   0  0  0  0  0  0  0  0  0  0  0  0
   -9.5000   20.7224   -4.4768 C   0  0  0  0  0  0  0  0  0  0  0  0
   -9.5420   22.0924   -4.7977 C   0  0  0  0  0  0  0  0  0  0  0  0
   -9.4414   22.4567   -6.1595 C   0  0  0  0  0  0  0  0  0  0  0  0
   -9.3637   23.8805   -6.6417 C   0  0  0  0  0  0  0  0  0  0  0  0
   -9.3429   21.4458   -7.1487 C   0  0  0  0  0  0  0  0  0  0  0  0
   -9.3379   20.0868   -6.8295 C   0  0  0  0  0  0  0  0  0  0  0  0
   -9.7048   23.0632   -3.6339 C   0  0  0  0  0  0  0  0  0  0  0  0
  -11.0905   23.0366   -2.9779 C   0  0  0  0  0  0  0  0  0  0  0  0
  -11.1733   24.1333   -1.9088 C   0  0  0  0  0  0  0  0  0  0  0  0
  -10.0659   24.1291   -0.9317 N   0  0  0  0  0  0  0  0  0  0  0  0
   -9.4391   25.4437   -0.8252 C   0  0  0  0  0  0  0  0  0  0  0  0
   -9.0862   23.0654   -1.1616 C   0  0  0  0  0  0  0  0  0  0  0  0
   -8.5669   22.9847   -2.5999 C   0  0  0  0  0  0  0  0  0  0  0  0
   -9.3360   18.4106   -5.1429 O   0  0  0  0  0  0  0  0  0  0  0  0
  -11.4491   17.5763   -4.4448 C   0  0  0  0  0  0  0  0  0  0  0  0
  -10.0958   18.0937   -3.9634 C   0  0  0  0  0  0  0  0  0  0  0  0
   -9.3861   17.0140   -3.1468 C   0  0  0  0  0  0  0  0  0  0  0  0
   -6.5792   16.3550  -10.6560 N   0  0  0  0  0  0  0  0  0  0  0  0
   -6.0406   16.2548   -9.7834 H   0  0  0  0  0  0  0  0  0  0  0  0
   -7.0979   15.1374  -11.1357 C   0  0  0  0  0  0  0  0  0  0  0  0
   -7.8013   15.1548  -12.3541 C   0  0  0  0  0  0  0  0  0  0  0  0
   -8.4611   14.0221  -12.8311 C   0  0  0  0  0  0  0  0  0  0  0  0
   -8.4576   12.8502  -12.0812 C   0  0  0  0  0  0  0  0  0  0  0  0
   -7.7611   12.8035  -10.8745 C   0  0  0  0  0  0  0  0  0  0  0  0
   -7.0478   13.9255  -10.4246 C   0  0  0  0  0  0  0  0  0  0  0  0
   -6.1007   13.7553   -8.9226 S   0  0  0  0  0  0  0  0  0  0  0  0
   -6.3447   12.4193   -8.4034 O   0  0  0  0  0  0  0  0  0  0  0  0
   -4.7491   14.1735   -9.2452 O   0  0  0  0  0  0  0  0  0  0  0  0
   -6.8095   14.8855   -7.7169 C   0  0  0  0  0  0  0  0  0  0  0  0
   -6.2025   14.7266   -6.3243 C   0  0  0  0  0  0  0  0  0  0  0  0
   -8.3330   14.8337   -7.6719 C   0  0  0  0  0  0  0  0  0  0  0  0
 28 29  1  0  0  0
 29 30  1  0  0  0
 29 27  1  0  0  0
 27 13  1  0  0  0
 13 14  2  0  0  0
 14 15  1  0  0  0
 15 20  1  0  0  0
 20 21  1  0  0  0
 21 22  1  0  0  0
 22 23  1  0  0  0
 23 24  1  0  0  0
 23 25  1  0  0  0
 25 26  1  0  0  0
 15 16  2  0  0  0
 16 17  1  0  0  0
 16 18  1  0  0  0
 18 19  2  0  0  0
 19 11  1  0  0  0
 11  1  1  0  0  0
  1  2  1  0  0  0
  2  3  2  0  0  0
  3 31  1  0  0  0
 31 33  1  0  0  0
 33 34  2  0  0  0
 34 35  1  0  0  0
 35 36  2  0  0  0
 36 37  1  0  0  0
 37 38  2  0  0  0
 38 39  1  0  0  0
 39 40  2  0  0  0
 39 41  2  0  0  0
 39 42  1  0  0  0
 42 43  1  0  0  0
 42 44  1  0  0  0
  3  4  1  0  0  0
  4  5  2  0  0  0
  5  6  1  0  0  0
  6  7  1  0  0  0
  7  8  2  0  0  0
  8  9  1  0  0  0
 19 13  1  0  0  0
 26 20  1  0  0  0
  9  1  2  0  0  0
 38 33  1  0  0  0
  8  4  1  0  0  0
 11 12  1  0  0  0
 31 32  1  0  0  0
  6 10  1  0  0  0
M  END
> <minimizedAffinity>
-9.37844

$$$$



 44 48  0  0  0  0  0  0  0  0999 V2000
   -9.3496   20.0677   -7.8647 C   0  0  0  0  0  0  0  0  0  0  0  0
   -9.1756   18.7084   -7.8224 N   0  0  0  0  0  0  0  0  0  0  0  0
   -8.5988   18.0136   -8.8522 C   0  0  0  0  0  0  0  0  0  0  0  0
   -8.2543   18.8526   -9.9162 C   0  0  0  0  0  0  0  0  0  0  0  0
   -7.7240   18.5609  -11.1470 C   0  0  0  0  0  0  0  0  0  0  0  0
   -7.6212   19.7642  -11.7859 N   0  0  0  0  0  0  0  0  0  0  0  0
   -8.0567   20.8105  -11.0615 N   0  0  0  0  0  0  0  0  0  0  0  0
   -8.4647   20.2548   -9.9192 C   0  0  0  0  0  0  0  0  0  0  0  0
   -9.0181   20.9022   -8.8790 N   0  0  0  0  0  0  0  0  0  0  0  0
   -7.2656   19.9446  -12.7167 H   0  0  0  0  0  0  0  0  0  0  0  0
   -9.9128   20.7375   -6.7807 N   0  0  0  0  0  0  0  0  0  0  0  0
  -10.4836   21.5022   -7.1237 H   0  0  0  0  0  0  0  0  0  0  0  0
   -9.7887   22.0844   -4.7903 C   0  0  0  0  0  0  0  0  0  0  0  0
   -9.4667   22.2769   -3.4456 C   0  0  0  0  0  0  0  0  0  0  0  0
   -9.0287   21.2101   -2.6383 C   0  0  0  0  0  0  0  0  0  0  0  0
   -8.9237   19.9313   -3.2307 C   0  0  0  0  0  0  0  0  0  0  0  0
   -8.5738   18.6816   -2.4681 C   0  0  0  0  0  0  0  0  0  0  0  0
   -9.2199   19.7719   -4.6080 C   0  0  0  0  0  0  0  0  0  0  0  0
   -9.6193   20.8393   -5.4141 C   0  0  0  0  0  0  0  0  0  0  0  0
   -8.6949   21.5414   -1.1884 C   0  0  0  0  0  0  0  0  0  0  0  0
   -7.2002   21.7490   -0.9155 C   0  0  0  0  0  0  0  0  0  0  0  0
   -6.9765   21.9530    0.5881 C   0  0  0  0  0  0  0  0  0  0  0  0
   -7.8308   22.9875    1.2055 N   0  0  0  0  0  0  0  0  0  0  0  0
   -8.5316   22.4745    2.3794 C   0  0  0  0  0  0  0  0  0  0  0  0
   -8.7386   23.6386    0.2590 C   0  0  0  0  0  0  0  0  0  0  0  0
   -9.5592   22.6702   -0.5977 C   0  0  0  0  0  0  0  0  0  0  0  0
  -10.2046   23.1385   -5.5735 O   0  0  0  0  0  0  0  0  0  0  0  0
   -8.0950   23.9280   -6.3314 C   0  0  0  0  0  0  0  0  0  0  0  0
   -9.3309   24.2791   -5.5068 C   0  0  0  0  0  0  0  0  0  0  0  0
  -10.0174   25.5111   -6.0963 C   0  0  0  0  0  0  0  0  0  0  0  0
   -8.4886   16.6112   -8.7039 N   0  0  0  0  0  0  0  0  0  0  0  0
   -8.9880   16.2384   -9.5244 H   0  0  0  0  0  0  0  0  0  0  0  0
   -7.3316   15.8804   -8.3740 C   0  0  0  0  0  0  0  0  0  0  0  0
   -6.4290   16.4525   -7.4588 C   0  0  0  0  0  0  0  0  0  0  0  0
   -5.1975   15.8589   -7.1817 C   0  0  0  0  0  0  0  0  0  0  0  0
   -4.8270   14.6906   -7.8399 C   0  0  0  0  0  0  0  0  0  0  0  0
   -5.7063   14.0983   -8.7453 C   0  0  0  0  0  0  0  0  0  0  0  0
   -6.9695   14.6638   -8.9788 C   0  0  0  0  0  0  0  0  0  0  0  0
   -8.0754   13.7928  -10.0744 S   0  0  0  0  0  0  0  0  0  0  0  0
   -7.5729   12.4354  -10.2110 O   0  0  0  0  0  0  0  0  0  0  0  0
   -9.4151   14.0237   -9.5669 O   0  0  0  0  0  0  0  0  0  0  0  0
   -7.9100   14.5415  -11.7010 C   0  0  0  0  0  0  0  0  0  0  0  0
   -8.9396   14.0215  -12.7023 C   0  0  0  0  0  0  0  0  0  0  0  0
   -6.4934   14.4533  -12.2589 C   0  0  0  0  0  0  0  0  0  0  0  0
 28 29  1  0  0  0
 29 30  1  0  0  0
 29 27  1  0  0  0
 27 13  1  0  0  0
 13 14  2  0  0  0
 14 15  1  0  0  0
 15 20  1  0  0  0
 20 21  1  0  0  0
 21 22  1  0  0  0
 22 23  1  0  0  0
 23 24  1  0  0  0
 23 25  1  0  0  0
 25 26  1  0  0  0
 15 16  2  0  0  0
 16 17  1  0  0  0
 16 18  1  0  0  0
 18 19  2  0  0  0
 19 11  1  0  0  0
 11  1  1  0  0  0
  1  2  1  0  0  0
  2  3  2  0  0  0
  3 31  1  0  0  0
 31 33  1  0  0  0
 33 34  2  0  0  0
 34 35  1  0  0  0
 35 36  2  0  0  0
 36 37  1  0  0  0
 37 38  2  0  0  0
 38 39  1  0  0  0
 39 40  2  0  0  0
 39 41  2  0  0  0
 39 42  1  0  0  0
 42 43  1  0  0  0
 42 44  1  0  0  0
  3  4  1  0  0  0
  4  5  2  0  0  0
  5  6  1  0  0  0
  6  7  1  0  0  0
  7  8  2  0  0  0
  8  9  1  0  0  0
 19 13  1  0  0  0
 26 20  1  0  0  0
  9  1  2  0  0  0
 38 33  1  0  0  0
  8  4  1  0  0  0
 11 12  1  0  0  0
 31 32  1  0  0  0
  6 10  1  0  0  0
M  END
> <minimizedAffinity>
-9.34420

$$$$



 44 48  0  0  0  0  0  0  0  0999 V2000
   -8.7729   19.1290   -9.6670 C   0  0  0  0  0  0  0  0  0  0  0  0
   -7.7895   18.1738   -9.6434 N   0  0  0  0  0  0  0  0  0  0  0  0
   -6.9166   17.9985  -10.6842 C   0  0  0  0  0  0  0  0  0  0  0  0
   -7.1813   18.8785  -11.7380 C   0  0  0  0  0  0  0  0  0  0  0  0
   -6.5980   18.9912  -12.9742 C   0  0  0  0  0  0  0  0  0  0  0  0
   -7.2740   20.0019  -13.5973 N   0  0  0  0  0  0  0  0  0  0  0  0
   -8.2587   20.5427  -12.8575 N   0  0  0  0  0  0  0  0  0  0  0  0
   -8.2194   19.8441  -11.7215 C   0  0  0  0  0  0  0  0  0  0  0  0
   -9.0443   19.9969  -10.6710 N   0  0  0  0  0  0  0  0  0  0  0  0
   -7.1183   20.3725  -14.5266 H   0  0  0  0  0  0  0  0  0  0  0  0
   -9.6190   19.2927   -8.5724 N   0  0  0  0  0  0  0  0  0  0  0  0
  -10.5659   19.4383   -8.9043 H   0  0  0  0  0  0  0  0  0  0  0  0
   -8.8573   18.7086   -6.3655 C   0  0  0  0  0  0  0  0  0  0  0  0
   -8.7009   18.9673   -5.0026 C   0  0  0  0  0  0  0  0  0  0  0  0
   -9.0596   20.2105   -4.4481 C   0  0  0  0  0  0  0  0  0  0  0  0
   -9.5853   21.1951   -5.3150 C   0  0  0  0  0  0  0  0  0  0  0  0
   -9.9108   22.6008   -4.8859 C   0  0  0  0  0  0  0  0  0  0  0  0
   -9.7697   20.8923   -6.6877 C   0  0  0  0  0  0  0  0  0  0  0  0
   -9.4464   19.6460   -7.2272 C   0  0  0  0  0  0  0  0  0  0  0  0
   -8.8550   20.3747   -2.9466 C   0  0  0  0  0  0  0  0  0  0  0  0
  -10.1512   20.3662   -2.1275 C   0  0  0  0  0  0  0  0  0  0  0  0
   -9.8308   20.6602   -0.6566 C   0  0  0  0  0  0  0  0  0  0  0  0
   -8.7681   19.8157   -0.0745 N   0  0  0  0  0  0  0  0  0  0  0  0
   -7.7292   20.6219    0.5602 C   0  0  0  0  0  0  0  0  0  0  0  0
   -8.2146   18.8399   -1.0155 C   0  0  0  0  0  0  0  0  0  0  0  0
   -7.7877   19.4319   -2.3617 C   0  0  0  0  0  0  0  0  0  0  0  0
   -8.5140   17.4840   -6.8946 O   0  0  0  0  0  0  0  0  0  0  0  0
   -9.5049   15.5645   -7.8857 C   0  0  0  0  0  0  0  0  0  0  0  0
   -9.4950   16.4610   -6.6500 C   0  0  0  0  0  0  0  0  0  0  0  0
   -9.1148   15.6426   -5.4161 C   0  0  0  0  0  0  0  0  0  0  0  0
   -5.9552   16.9690  -10.5550 N   0  0  0  0  0  0  0  0  0  0  0  0
   -5.0565   17.4728  -10.5491 H   0  0  0  0  0  0  0  0  0  0  0  0
   -5.9917   15.8801   -9.6637 C   0  0  0  0  0  0  0  0  0  0  0  0
   -5.7788   16.1391   -8.2973 C   0  0  0  0  0  0  0  0  0  0  0  0
   -5.6644   15.1046   -7.3685 C   0  0  0  0  0  0  0  0  0  0  0  0
   -5.7302   13.7813   -7.7927 C   0  0  0  0  0  0  0  0  0  0  0  0
   -5.9489   13.4970   -9.1399 C   0  0  0  0  0  0  0  0  0  0  0  0
   -6.1236   14.5388  -10.0642 C   0  0  0  0  0  0  0  0  0  0  0  0
   -6.4988   14.0936  -11.7504 S   0  0  0  0  0  0  0  0  0  0  0  0
   -6.8646   15.3136  -12.4514 O   0  0  0  0  0  0  0  0  0  0  0  0
   -5.3812   13.2945  -12.2176 O   0  0  0  0  0  0  0  0  0  0  0  0
   -7.9872   13.0852  -11.7145 C   0  0  0  0  0  0  0  0  0  0  0  0
   -7.6920   11.5874  -11.7673 C   0  0  0  0  0  0  0  0  0  0  0  0
   -9.0102   13.4908  -12.7703 C   0  0  0  0  0  0  0  0  0  0  0  0
 28 29  1  0  0  0
 29 30  1  0  0  0
 29 27  1  0  0  0
 27 13  1  0  0  0
 13 14  2  0  0  0
 14 15  1  0  0  0
 15 20  1  0  0  0
 20 21  1  0  0  0
 21 22  1  0  0  0
 22 23  1  0  0  0
 23 24  1  0  0  0
 23 25  1  0  0  0
 25 26  1  0  0  0
 15 16  2  0  0  0
 16 17  1  0  0  0
 16 18  1  0  0  0
 18 19  2  0  0  0
 19 11  1  0  0  0
 11  1  1  0  0  0
  1  2  1  0  0  0
  2  3  2  0  0  0
  3 31  1  0  0  0
 31 33  1  0  0  0
 33 34  2  0  0  0
 34 35  1  0  0  0
 35 36  2  0  0  0
 36 37  1  0  0  0
 37 38  2  0  0  0
 38 39  1  0  0  0
 39 40  2  0  0  0
 39 41  2  0  0  0
 39 42  1  0  0  0
 42 43  1  0  0  0
 42 44  1  0  0  0
  3  4  1  0  0  0
  4  5  2  0  0  0
  5  6  1  0  0  0
  6  7  1  0  0  0
  7  8  2  0  0  0
  8  9  1  0  0  0
 19 13  1  0  0  0
 26 20  1  0  0  0
  9  1  2  0  0  0
 38 33  1  0  0  0
  8  4  1  0  0  0
 11 12  1  0  0  0
 31 32  1  0  0  0
  6 10  1  0  0  0
M  END
> <minimizedAffinity>
-9.32954

$$$$



 44 48  0  0  0  0  0  0  0  0999 V2000
   -8.9095   16.6325   -6.8555 C   0  0  0  0  0  0  0  0  0  0  0  0
   -8.8187   16.5120   -8.2183 N   0  0  0  0  0  0  0  0  0  0  0  0
   -7.9425   15.6469   -8.8181 C   0  0  0  0  0  0  0  0  0  0  0  0
   -7.1700   14.9562   -7.8796 C   0  0  0  0  0  0  0  0  0  0  0  0
   -6.1457   14.0607   -8.0526 C   0  0  0  0  0  0  0  0  0  0  0  0
   -5.7442   13.7287   -6.7896 N   0  0  0  0  0  0  0  0  0  0  0  0
   -6.4274   14.3530   -5.8135 N   0  0  0  0  0  0  0  0  0  0  0  0
   -7.2918   15.1230   -6.4768 C   0  0  0  0  0  0  0  0  0  0  0  0
   -8.1788   15.9703   -5.9268 N   0  0  0  0  0  0  0  0  0  0  0  0
   -5.0100   13.0855   -6.5203 H   0  0  0  0  0  0  0  0  0  0  0  0
   -9.8374   17.5029   -6.2880 N   0  0  0  0  0  0  0  0  0  0  0  0
  -10.7666   17.2500   -6.6055 H   0  0  0  0  0  0  0  0  0  0  0  0
   -9.9297   18.8909   -4.3241 C   0  0  0  0  0  0  0  0  0  0  0  0
   -9.9373   20.1331   -3.6871 C   0  0  0  0  0  0  0  0  0  0  0  0
   -9.7200   21.3245   -4.4047 C   0  0  0  0  0  0  0  0  0  0  0  0
   -9.4924   21.2272   -5.7961 C   0  0  0  0  0  0  0  0  0  0  0  0
   -9.1404   22.4005   -6.6709 C   0  0  0  0  0  0  0  0  0  0  0  0
   -9.5286   19.9564   -6.4237 C   0  0  0  0  0  0  0  0  0  0  0  0
   -9.7802   18.7805   -5.7147 C   0  0  0  0  0  0  0  0  0  0  0  0
   -9.7624   22.6219   -3.6058 C   0  0  0  0  0  0  0  0  0  0  0  0
  -11.1307   22.9417   -2.9919 C   0  0  0  0  0  0  0  0  0  0  0  0
  -11.0828   24.3203   -2.3213 C   0  0  0  0  0  0  0  0  0  0  0  0
   -9.9622   24.5106   -1.3782 N   0  0  0  0  0  0  0  0  0  0  0  0
   -9.2056   25.7223   -1.6811 C   0  0  0  0  0  0  0  0  0  0  0  0
   -9.0981   23.3353   -1.2511 C   0  0  0  0  0  0  0  0  0  0  0  0
   -8.6178   22.7567   -2.5850 C   0  0  0  0  0  0  0  0  0  0  0  0
  -10.1555   17.7327   -3.6134 O   0  0  0  0  0  0  0  0  0  0  0  0
  -12.0528   17.3647   -2.2301 C   0  0  0  0  0  0  0  0  0  0  0  0
  -10.6506   17.9663   -2.2833 C   0  0  0  0  0  0  0  0  0  0  0  0
   -9.7516   17.2834   -1.2528 C   0  0  0  0  0  0  0  0  0  0  0  0
   -7.9248   15.6222  -10.2323 N   0  0  0  0  0  0  0  0  0  0  0  0
   -8.9204   15.6821  -10.4906 H   0  0  0  0  0  0  0  0  0  0  0  0
   -7.0809   16.3598  -11.0840 C   0  0  0  0  0  0  0  0  0  0  0  0
   -7.1864   17.7626  -11.0634 C   0  0  0  0  0  0  0  0  0  0  0  0
   -6.4863   18.5597  -11.9692 C   0  0  0  0  0  0  0  0  0  0  0  0
   -5.6853   17.9666  -12.9399 C   0  0  0  0  0  0  0  0  0  0  0  0
   -5.5565   16.5790  -12.9770 C   0  0  0  0  0  0  0  0  0  0  0  0
   -6.2140   15.7811  -12.0277 C   0  0  0  0  0  0  0  0  0  0  0  0
   -5.9196   14.0225  -12.0796 S   0  0  0  0  0  0  0  0  0  0  0  0
   -5.6161   13.6727  -13.4578 O   0  0  0  0  0  0  0  0  0  0  0  0
   -4.9581   13.7406  -11.0300 O   0  0  0  0  0  0  0  0  0  0  0  0
   -7.4794   13.2117  -11.7014 C   0  0  0  0  0  0  0  0  0  0  0  0
   -7.3067   11.7478  -11.3008 C   0  0  0  0  0  0  0  0  0  0  0  0
   -8.5193   13.3701  -12.8057 C   0  0  0  0  0  0  0  0  0  0  0  0
 28 29  1  0  0  0
 29 30  1  0  0  0
 29 27  1  0  0  0
 27 13  1  0  0  0
 13 14  2  0  0  0
 14 15  1  0  0  0
 15 20  1  0  0  0
 20 21  1  0  0  0
 21 22  1  0  0  0
 22 23  1  0  0  0
 23 24  1  0  0  0
 23 25  1  0  0  0
 25 26  1  0  0  0
 15 16  2  0  0  0
 16 17  1  0  0  0
 16 18  1  0  0  0
 18 19  2  0  0  0
 19 11  1  0  0  0
 11  1  1  0  0  0
  1  2  1  0  0  0
  2  3  2  0  0  0
  3 31  1  0  0  0
 31 33  1  0  0  0
 33 34  2  0  0  0
 34 35  1  0  0  0
 35 36  2  0  0  0
 36 37  1  0  0  0
 37 38  2  0  0  0
 38 39  1  0  0  0
 39 40  2  0  0  0
 39 41  2  0  0  0
 39 42  1  0  0  0
 42 43  1  0  0  0
 42 44  1  0  0  0
  3  4  1  0  0  0
  4  5  2  0  0  0
  5  6  1  0  0  0
  6  7  1  0  0  0
  7  8  2  0  0  0
  8  9  1  0  0  0
 19 13  1  0  0  0
 26 20  1  0  0  0
  9  1  2  0  0  0
 38 33  1  0  0  0
  8  4  1  0  0  0
 11 12  1  0  0  0
 31 32  1  0  0  0
  6 10  1  0  0  0
M  END
> <minimizedAffinity>
-9.12522

$$$$



 44 48  0  0  0  0  0  0  0  0999 V2000
   -9.1789   18.2886   -6.1970 C   0  0  0  0  0  0  0  0  0  0  0  0
   -8.2521   18.5769   -7.1655 N   0  0  0  0  0  0  0  0  0  0  0  0
   -7.7978   17.6313   -8.0461 C   0  0  0  0  0  0  0  0  0  0  0  0
   -8.3715   16.3792   -7.8055 C   0  0  0  0  0  0  0  0  0  0  0  0
   -8.1469   15.1652   -8.4029 C   0  0  0  0  0  0  0  0  0  0  0  0
   -8.9652   14.2883   -7.7486 N   0  0  0  0  0  0  0  0  0  0  0  0
   -9.6939   14.8455   -6.7649 N   0  0  0  0  0  0  0  0  0  0  0  0
   -9.3196   16.1260   -6.7821 C   0  0  0  0  0  0  0  0  0  0  0  0
   -9.7541   17.0875   -5.9491 N   0  0  0  0  0  0  0  0  0  0  0  0
   -9.0755   13.2963   -7.9194 H   0  0  0  0  0  0  0  0  0  0  0  0
   -9.6359   19.2895   -5.3425 N   0  0  0  0  0  0  0  0  0  0  0  0
  -10.1809   19.9575   -5.8761 H   0  0  0  0  0  0  0  0  0  0  0  0
   -9.5739   21.0970   -3.7549 C   0  0  0  0  0  0  0  0  0  0  0  0
   -9.1816   21.6634   -2.5408 C   0  0  0  0  0  0  0  0  0  0  0  0
   -8.5137   20.9044   -1.5612 C   0  0  0  0  0  0  0  0  0  0  0  0
   -8.2504   19.5448   -1.8431 C   0  0  0  0  0  0  0  0  0  0  0  0
   -7.6430   18.5871   -0.8532 C   0  0  0  0  0  0  0  0  0  0  0  0
   -8.6252   19.0054   -3.0995 C   0  0  0  0  0  0  0  0  0  0  0  0
   -9.2551   19.7706   -4.0825 C   0  0  0  0  0  0  0  0  0  0  0  0
   -8.1239   21.6319   -0.2798 C   0  0  0  0  0  0  0  0  0  0  0  0
   -6.6331   21.9756   -0.1767 C   0  0  0  0  0  0  0  0  0  0  0  0
   -6.3420   22.5901    1.1981 C   0  0  0  0  0  0  0  0  0  0  0  0
   -7.2259   23.7121    1.5735 N   0  0  0  0  0  0  0  0  0  0  0  0
   -7.8281   23.5045    2.8875 C   0  0  0  0  0  0  0  0  0  0  0  0
   -8.2233   24.0386    0.5525 C   0  0  0  0  0  0  0  0  0  0  0  0
   -9.0254   22.8367    0.0454 C   0  0  0  0  0  0  0  0  0  0  0  0
  -10.2162   21.8529   -4.7107 O   0  0  0  0  0  0  0  0  0  0  0  0
   -9.2008   22.4965   -6.7609 C   0  0  0  0  0  0  0  0  0  0  0  0
   -9.3804   22.8694   -5.2913 C   0  0  0  0  0  0  0  0  0  0  0  0
  -10.0511   24.2384   -5.1797 C   0  0  0  0  0  0  0  0  0  0  0  0
   -6.8274   18.0407   -8.9903 N   0  0  0  0  0  0  0  0  0  0  0  0
   -6.1487   17.2656   -8.9955 H   0  0  0  0  0  0  0  0  0  0  0  0
   -7.0617   18.5872  -10.2662 C   0  0  0  0  0  0  0  0  0  0  0  0
   -7.8102   19.7757  -10.3472 C   0  0  0  0  0  0  0  0  0  0  0  0
   -8.2016   20.3085  -11.5755 C   0  0  0  0  0  0  0  0  0  0  0  0
   -7.8774   19.6445  -12.7543 C   0  0  0  0  0  0  0  0  0  0  0  0
   -7.1291   18.4694  -12.7028 C   0  0  0  0  0  0  0  0  0  0  0  0
   -6.6848   17.9663  -11.4701 C   0  0  0  0  0  0  0  0  0  0  0  0
   -5.6485   16.5145  -11.4949 S   0  0  0  0  0  0  0  0  0  0  0  0
   -4.4530   16.8462  -12.2529 O   0  0  0  0  0  0  0  0  0  0  0  0
   -5.5357   16.0725  -10.1174 O   0  0  0  0  0  0  0  0  0  0  0  0
   -6.5086   15.2647  -12.4602 C   0  0  0  0  0  0  0  0  0  0  0  0
   -7.9347   15.0149  -11.9735 C   0  0  0  0  0  0  0  0  0  0  0  0
   -5.7249   13.9626  -12.5870 C   0  0  0  0  0  0  0  0  0  0  0  0
 28 29  1  0  0  0
 29 30  1  0  0  0
 29 27  1  0  0  0
 27 13  1  0  0  0
 13 14  2  0  0  0
 14 15  1  0  0  0
 15 20  1  0  0  0
 20 21  1  0  0  0
 21 22  1  0  0  0
 22 23  1  0  0  0
 23 24  1  0  0  0
 23 25  1  0  0  0
 25 26  1  0  0  0
 15 16  2  0  0  0
 16 17  1  0  0  0
 16 18  1  0  0  0
 18 19  2  0  0  0
 19 11  1  0  0  0
 11  1  1  0  0  0
  1  2  1  0  0  0
  2  3  2  0  0  0
  3 31  1  0  0  0
 31 33  1  0  0  0
 33 34  2  0  0  0
 34 35  1  0  0  0
 35 36  2  0  0  0
 36 37  1  0  0  0
 37 38  2  0  0  0
 38 39  1  0  0  0
 39 40  2  0  0  0
 39 41  2  0  0  0
 39 42  1  0  0  0
 42 43  1  0  0  0
 42 44  1  0  0  0
  3  4  1  0  0  0
  4  5  2  0  0  0
  5  6  1  0  0  0
  6  7  1  0  0  0
  7  8  2  0  0  0
  8  9  1  0  0  0
 19 13  1  0  0  0
 26 20  1  0  0  0
  9  1  2  0  0  0
 38 33  1  0  0  0
  8  4  1  0  0  0
 11 12  1  0  0  0
 31 32  1  0  0  0
  6 10  1  0  0  0
M  END
> <minimizedAffinity>
-8.69728

$$$$



 44 48  0  0  0  0  0  0  0  0999 V2000
   -9.9203   21.5622   -6.3816 C   0  0  0  0  0  0  0  0  0  0  0  0
  -10.1851   21.2550   -5.0718 N   0  0  0  0  0  0  0  0  0  0  0  0
  -10.0815   22.1823   -4.0690 C   0  0  0  0  0  0  0  0  0  0  0  0
   -9.6586   23.4244   -4.5517 C   0  0  0  0  0  0  0  0  0  0  0  0
   -9.3680   24.5881   -3.8866 C   0  0  0  0  0  0  0  0  0  0  0  0
   -8.9792   25.4670   -4.8578 N   0  0  0  0  0  0  0  0  0  0  0  0
   -8.9871   24.9523   -6.1004 N   0  0  0  0  0  0  0  0  0  0  0  0
   -9.3851   23.6921   -5.9169 C   0  0  0  0  0  0  0  0  0  0  0  0
   -9.5172   22.7578   -6.8745 N   0  0  0  0  0  0  0  0  0  0  0  0
   -8.6935   26.4318   -4.7439 H   0  0  0  0  0  0  0  0  0  0  0  0
  -10.0690   20.5951   -7.3733 N   0  0  0  0  0  0  0  0  0  0  0  0
  -11.0554   20.3944   -7.4953 H   0  0  0  0  0  0  0  0  0  0  0  0
   -9.1382   18.3763   -7.3293 C   0  0  0  0  0  0  0  0  0  0  0  0
   -8.2878   17.3823   -7.8167 C   0  0  0  0  0  0  0  0  0  0  0  0
   -7.5463   17.5687   -8.9987 C   0  0  0  0  0  0  0  0  0  0  0  0
   -7.6880   18.7976   -9.6821 C   0  0  0  0  0  0  0  0  0  0  0  0
   -7.0439   19.0965  -11.0094 C   0  0  0  0  0  0  0  0  0  0  0  0
   -8.5288   19.8044   -9.1441 C   0  0  0  0  0  0  0  0  0  0  0  0
   -9.2347   19.6295   -7.9525 C   0  0  0  0  0  0  0  0  0  0  0  0
   -6.6423   16.4190   -9.4279 C   0  0  0  0  0  0  0  0  0  0  0  0
   -6.0979   15.5762   -8.2683 C   0  0  0  0  0  0  0  0  0  0  0  0
   -5.1110   14.5346   -8.8100 C   0  0  0  0  0  0  0  0  0  0  0  0
   -5.6238   13.7211   -9.9310 N   0  0  0  0  0  0  0  0  0  0  0  0
   -4.7082   13.7367  -11.0684 C   0  0  0  0  0  0  0  0  0  0  0  0
   -6.9950   14.0576  -10.3191 C   0  0  0  0  0  0  0  0  0  0  0  0
   -7.2374   15.5516  -10.5520 C   0  0  0  0  0  0  0  0  0  0  0  0
   -9.8496   18.1870   -6.1650 O   0  0  0  0  0  0  0  0  0  0  0  0
   -8.6062   18.5211   -4.1674 C   0  0  0  0  0  0  0  0  0  0  0  0
   -9.1137   17.4739   -5.1557 C   0  0  0  0  0  0  0  0  0  0  0  0
  -10.0234   16.4776   -4.4372 C   0  0  0  0  0  0  0  0  0  0  0  0
  -10.3617   21.7452   -2.7532 N   0  0  0  0  0  0  0  0  0  0  0  0
  -11.2225   21.1887   -2.8583 H   0  0  0  0  0  0  0  0  0  0  0  0
   -9.4523   21.1988   -1.8281 C   0  0  0  0  0  0  0  0  0  0  0  0
   -8.1619   21.7558   -1.7644 C   0  0  0  0  0  0  0  0  0  0  0  0
   -7.1613   21.1888   -0.9749 C   0  0  0  0  0  0  0  0  0  0  0  0
   -7.4220   20.0290   -0.2521 C   0  0  0  0  0  0  0  0  0  0  0  0
   -8.6947   19.4614   -0.2909 C   0  0  0  0  0  0  0  0  0  0  0  0
   -9.7174   20.0663   -1.0382 C   0  0  0  0  0  0  0  0  0  0  0  0
  -11.3430   19.3362   -0.9570 S   0  0  0  0  0  0  0  0  0  0  0  0
  -12.2534   20.3555   -0.4610 O   0  0  0  0  0  0  0  0  0  0  0  0
  -11.5767   18.7207   -2.2502 O   0  0  0  0  0  0  0  0  0  0  0  0
  -11.2915   18.0657    0.3145 C   0  0  0  0  0  0  0  0  0  0  0  0
  -11.2756   16.6504   -0.2596 C   0  0  0  0  0  0  0  0  0  0  0  0
  -12.3818   18.2294    1.3682 C   0  0  0  0  0  0  0  0  0  0  0  0
 28 29  1  0  0  0
 29 30  1  0  0  0
 29 27  1  0  0  0
 27 13  1  0  0  0
 13 14  2  0  0  0
 14 15  1  0  0  0
 15 20  1  0  0  0
 20 21  1  0  0  0
 21 22  1  0  0  0
 22 23  1  0  0  0
 23 24  1  0  0  0
 23 25  1  0  0  0
 25 26  1  0  0  0
 15 16  2  0  0  0
 16 17  1  0  0  0
 16 18  1  0  0  0
 18 19  2  0  0  0
 19 11  1  0  0  0
 11  1  1  0  0  0
  1  2  1  0  0  0
  2  3  2  0  0  0
  3 31  1  0  0  0
 31 33  1  0  0  0
 33 34  2  0  0  0
 34 35  1  0  0  0
 35 36  2  0  0  0
 36 37  1  0  0  0
 37 38  2  0  0  0
 38 39  1  0  0  0
 39 40  2  0  0  0
 39 41  2  0  0  0
 39 42  1  0  0  0
 42 43  1  0  0  0
 42 44  1  0  0  0
  3  4  1  0  0  0
  4  5  2  0  0  0
  5  6  1  0  0  0
  6  7  1  0  0  0
  7  8  2  0  0  0
  8  9  1  0  0  0
 19 13  1  0  0  0
 26 20  1  0  0  0
  9  1  2  0  0  0
 38 33  1  0  0  0
  8  4  1  0  0  0
 11 12  1  0  0  0
 31 32  1  0  0  0
  6 10  1  0  0  0
M  END
> <minimizedAffinity>
-8.67304

$$$$
