


 44 48  0  0  0  0  0  0  0  0999 V2000
   -8.3358   19.5674  -10.5470 C   0  0  0  0  0  0  0  0  0  0  0  0
   -7.4100   18.5820  -10.3052 N   0  0  0  0  0  0  0  0  0  0  0  0
   -6.6640   18.0358  -11.3093 C   0  0  0  0  0  0  0  0  0  0  0  0
   -6.9503   18.6077  -12.5421 C   0  0  0  0  0  0  0  0  0  0  0  0
   -6.4222   18.3085  -13.7709 C   0  0  0  0  0  0  0  0  0  0  0  0
   -7.0766   19.1459  -14.6337 N   0  0  0  0  0  0  0  0  0  0  0  0
   -7.9587   19.9733  -14.0399 N   0  0  0  0  0  0  0  0  0  0  0  0
   -7.9033   19.6274  -12.7496 C   0  0  0  0  0  0  0  0  0  0  0  0
   -8.6207   20.1490  -11.7366 N   0  0  0  0  0  0  0  0  0  0  0  0
   -6.9743   19.2088  -15.6413 H   0  0  0  0  0  0  0  0  0  0  0  0
   -8.9637   19.9980   -9.3810 N   0  0  0  0  0  0  0  0  0  0  0  0
   -9.2419   20.9662   -9.4839 H   0  0  0  0  0  0  0  0  0  0  0  0
   -9.1357   20.4018   -7.0085 C   0  0  0  0  0  0  0  0  0  0  0  0
   -9.2147   19.9682   -5.6848 C   0  0  0  0  0  0  0  0  0  0  0  0
   -9.3321   18.6029   -5.3765 C   0  0  0  0  0  0  0  0  0  0  0  0
   -9.3688   17.6810   -6.4442 C   0  0  0  0  0  0  0  0  0  0  0  0
   -9.5113   16.1985   -6.2193 C   0  0  0  0  0  0  0  0  0  0  0  0
   -9.2462   18.1419   -7.7747 C   0  0  0  0  0  0  0  0  0  0  0  0
   -9.0908   19.4961   -8.0805 C   0  0  0  0  0  0  0  0  0  0  0  0
   -9.4291   18.1707   -3.9180 C   0  0  0  0  0  0  0  0  0  0  0  0
  -10.8790   18.2337   -3.3926 C   0  0  0  0  0  0  0  0  0  0  0  0
  -10.9583   18.5893   -1.9030 C   0  0  0  0  0  0  0  0  0  0  0  0
   -9.8763   17.9369   -1.1688 N   0  0  0  0  0  0  0  0  0  0  0  0
  -10.0669   18.0283    0.2756 C   0  0  0  0  0  0  0  0  0  0  0  0
   -8.5530   18.4462   -1.5599 C   0  0  0  0  0  0  0  0  0  0  0  0
   -8.4887   18.9672   -3.0025 C   0  0  0  0  0  0  0  0  0  0  0  0
   -9.0362   21.7578   -7.2254 O   0  0  0  0  0  0  0  0  0  0  0  0
   -8.5639   23.8439   -6.0729 C   0  0  0  0  0  0  0  0  0  0  0  0
   -9.3068   22.5105   -6.0271 C   0  0  0  0  0  0  0  0  0  0  0  0
  -10.8142   22.7483   -5.9822 C   0  0  0  0  0  0  0  0  0  0  0  0
   -5.6960   17.0336  -11.0742 N   0  0  0  0  0  0  0  0  0  0  0  0
   -4.7863   17.4850  -11.0727 H   0  0  0  0  0  0  0  0  0  0  0  0
   -5.8447   16.1028  -10.0234 C   0  0  0  0  0  0  0  0  0  0  0  0
   -6.0418   16.5994   -8.7208 C   0  0  0  0  0  0  0  0  0  0  0  0
   -6.3047   15.7434   -7.6489 C   0  0  0  0  0  0  0  0  0  0  0  0
   -6.3924   14.3729   -7.8610 C   0  0  0  0  0  0  0  0  0  0  0  0
   -6.2070   13.8584   -9.1427 C   0  0  0  0  0  0  0  0  0  0  0  0
   -5.9229   14.7142  -10.2231 C   0  0  0  0  0  0  0  0  0  0  0  0
   -5.6370   13.9452  -11.8129 S   0  0  0  0  0  0  0  0  0  0  0  0
   -4.8072   12.7658  -11.6560 O   0  0  0  0  0  0  0  0  0  0  0  0
   -5.1890   14.9971  -12.7133 O   0  0  0  0  0  0  0  0  0  0  0  0
   -7.2470   13.4165  -12.4029 C   0  0  0  0  0  0  0  0  0  0  0  0
   -8.3243   14.4715  -12.1721 C   0  0  0  0  0  0  0  0  0  0  0  0
   -7.6798   12.0668  -11.8456 C   0  0  0  0  0  0  0  0  0  0  0  0
 28 29  1  0  0  0
 29 30  1  0  0  0
 29 27  1  0  0  0
 27 13  1  0  0  0
 13 14  2  0  0  0
 14 15  1  0  0  0
 15 20  1  0  0  0
 20 21  1  0  0  0
 21 22  1  0  0  0
 22 23  1  0  0  0
 23 24  1  0  0  0
 23 25  1  0  0  0
 25 26  1  0  0  0
 15 16  2  0  0  0
 16 17  1  0  0  0
 16 18  1  0  0  0
 18 19  2  0  0  0
 19 11  1  0  0  0
 11  1  1  0  0  0
  1  2  1  0  0  0
  2  3  2  0  0  0
  3 31  1  0  0  0
 31 33  1  0  0  0
 33 34  2  0  0  0
 34 35  1  0  0  0
 35 36  2  0  0  0
 36 37  1  0  0  0
 37 38  2  0  0  0
 38 39  1  0  0  0
 39 40  2  0  0  0
 39 41  2  0  0  0
 39 42  1  0  0  0
 42 43  1  0  0  0
 42 44  1  0  0  0
  3  4  1  0  0  0
  4  5  2  0  0  0
  5  6  1  0  0  0
  6  7  1  0  0  0
  7  8  2  0  0  0
  8  9  1  0  0  0
 19 13  1  0  0  0
 26 20  1  0  0  0
  9  1  2  0  0  0
 38 33  1  0  0  0
  8  4  1  0  0  0
 11 12  1  0  0  0
 31 32  1  0  0  0
  6 10  1  0  0  0
M  END
> <minimizedAffinity>
-9.95187

$$$$



 44 48  0  0  0  0  0  0  0  0999 V2000
   -8.5329   18.9317   -9.3917 C   0  0  0  0  0  0  0  0  0  0  0  0
   -7.6077   17.9324   -9.5698 N   0  0  0  0  0  0  0  0  0  0  0  0
   -6.9294   17.7830  -10.7449 C   0  0  0  0  0  0  0  0  0  0  0  0
   -7.2802   18.7517  -11.6763 C   0  0  0  0  0  0  0  0  0  0  0  0
   -6.8293   18.9110  -12.9607 C   0  0  0  0  0  0  0  0  0  0  0  0
   -7.5221   19.9940  -13.4308 N   0  0  0  0  0  0  0  0  0  0  0  0
   -8.3567   20.5504  -12.5312 N   0  0  0  0  0  0  0  0  0  0  0  0
   -8.2300   19.7709  -11.4524 C   0  0  0  0  0  0  0  0  0  0  0  0
   -8.8795   19.8943  -10.2795 N   0  0  0  0  0  0  0  0  0  0  0  0
   -7.4784   20.4102  -14.3553 H   0  0  0  0  0  0  0  0  0  0  0  0
   -9.0854   18.9167   -8.1135 N   0  0  0  0  0  0  0  0  0  0  0  0
   -9.6327   18.0736   -7.9910 H   0  0  0  0  0  0  0  0  0  0  0  0
   -9.3404   19.4037   -5.7642 C   0  0  0  0  0  0  0  0  0  0  0  0
   -9.5405   20.2838   -4.7004 C   0  0  0  0  0  0  0  0  0  0  0  0
   -9.5691   21.6730   -4.9062 C   0  0  0  0  0  0  0  0  0  0  0  0
   -9.3889   22.1542   -6.2204 C   0  0  0  0  0  0  0  0  0  0  0  0
   -9.3845   23.6256   -6.5422 C   0  0  0  0  0  0  0  0  0  0  0  0
   -9.2285   21.2408   -7.2871 C   0  0  0  0  0  0  0  0  0  0  0  0
   -9.2383   19.8580   -7.0889 C   0  0  0  0  0  0  0  0  0  0  0  0
   -9.7770   22.6018   -3.7156 C   0  0  0  0  0  0  0  0  0  0  0  0
   -9.0816   22.0733   -2.4431 C   0  0  0  0  0  0  0  0  0  0  0  0
   -9.8333   22.4390   -1.1575 C   0  0  0  0  0  0  0  0  0  0  0  0
  -10.3817   23.7897   -1.2588 N   0  0  0  0  0  0  0  0  0  0  0  0
  -10.8697   24.2764    0.0280 C   0  0  0  0  0  0  0  0  0  0  0  0
  -11.4247   23.8903   -2.2911 C   0  0  0  0  0  0  0  0  0  0  0  0
  -11.2604   22.8864   -3.4409 C   0  0  0  0  0  0  0  0  0  0  0  0
   -9.3121   18.0578   -5.4754 O   0  0  0  0  0  0  0  0  0  0  0  0
  -11.4808   17.4484   -4.5652 C   0  0  0  0  0  0  0  0  0  0  0  0
  -10.0183   17.7595   -4.2554 C   0  0  0  0  0  0  0  0  0  0  0  0
   -9.3398   16.5403   -3.6357 C   0  0  0  0  0  0  0  0  0  0  0  0
   -5.9627   16.7706  -10.9377 N   0  0  0  0  0  0  0  0  0  0  0  0
   -5.0899   17.2277  -11.1837 H   0  0  0  0  0  0  0  0  0  0  0  0
   -5.7889   15.7339   -9.9954 C   0  0  0  0  0  0  0  0  0  0  0  0
   -5.8088   16.0703   -8.6284 C   0  0  0  0  0  0  0  0  0  0  0  0
   -5.7524   15.0876   -7.6374 C   0  0  0  0  0  0  0  0  0  0  0  0
   -5.6915   13.7459   -7.9938 C   0  0  0  0  0  0  0  0  0  0  0  0
   -5.6767   13.3881   -9.3404 C   0  0  0  0  0  0  0  0  0  0  0  0
   -5.7140   14.3746  -10.3433 C   0  0  0  0  0  0  0  0  0  0  0  0
   -5.6235   13.8109  -12.0387 S   0  0  0  0  0  0  0  0  0  0  0  0
   -4.7311   12.6718  -12.1400 O   0  0  0  0  0  0  0  0  0  0  0  0
   -5.3517   14.9834  -12.8568 O   0  0  0  0  0  0  0  0  0  0  0  0
   -7.2770   13.2600  -12.4654 C   0  0  0  0  0  0  0  0  0  0  0  0
   -8.3385   14.3064  -12.1412 C   0  0  0  0  0  0  0  0  0  0  0  0
   -7.6390   11.9118  -11.8566 C   0  0  0  0  0  0  0  0  0  0  0  0
 28 29  1  0  0  0
 29 30  1  0  0  0
 29 27  1  0  0  0
 27 13  1  0  0  0
 13 14  2  0  0  0
 14 15  1  0  0  0
 15 20  1  0  0  0
 20 21  1  0  0  0
 21 22  1  0  0  0
 22 23  1  0  0  0
 23 24  1  0  0  0
 23 25  1  0  0  0
 25 26  1  0  0  0
 15 16  2  0  0  0
 16 17  1  0  0  0
 16 18  1  0  0  0
 18 19  2  0  0  0
 19 11  1  0  0  0
 11  1  1  0  0  0
  1  2  1  0  0  0
  2  3  2  0  0  0
  3 31  1  0  0  0
 31 33  1  0  0  0
 33 34  2  0  0  0
 34 35  1  0  0  0
 35 36  2  0  0  0
 36 37  1  0  0  0
 37 38  2  0  0  0
 38 39  1  0  0  0
 39 40  2  0  0  0
 39 41  2  0  0  0
 39 42  1  0  0  0
 42 43  1  0  0  0
 42 44  1  0  0  0
  3  4  1  0  0  0
  4  5  2  0  0  0
  5  6  1  0  0  0
  6  7  1  0  0  0
  7  8  2  0  0  0
  8  9  1  0  0  0
 19 13  1  0  0  0
 26 20  1  0  0  0
  9  1  2  0  0  0
 38 33  1  0  0  0
  8  4  1  0  0  0
 11 12  1  0  0  0
 31 32  1  0  0  0
  6 10  1  0  0  0
M  END
> <minimizedAffinity>
-9.68091

$$$$



 44 48  0  0  0  0  0  0  0  0999 V2000
   -8.7983   19.2412   -9.2210 C   0  0  0  0  0  0  0  0  0  0  0  0
   -8.0325   18.1061   -9.3288 N   0  0  0  0  0  0  0  0  0  0  0  0
   -7.3432   17.8107  -10.4693 C   0  0  0  0  0  0  0  0  0  0  0  0
   -7.5062   18.7858  -11.4446 C   0  0  0  0  0  0  0  0  0  0  0  0
   -6.9898   18.8259  -12.7135 C   0  0  0  0  0  0  0  0  0  0  0  0
   -7.4897   19.9837  -13.2461 N   0  0  0  0  0  0  0  0  0  0  0  0
   -8.2605   20.6946  -12.4001 N   0  0  0  0  0  0  0  0  0  0  0  0
   -8.2949   19.9460  -11.2928 C   0  0  0  0  0  0  0  0  0  0  0  0
   -8.9598   20.2113  -10.1525 N   0  0  0  0  0  0  0  0  0  0  0  0
   -7.3487   20.3532  -14.1806 H   0  0  0  0  0  0  0  0  0  0  0  0
   -9.3925   19.3589   -7.9671 N   0  0  0  0  0  0  0  0  0  0  0  0
  -10.0911   18.6347   -7.8540 H   0  0  0  0  0  0  0  0  0  0  0  0
   -9.4124   19.9267   -5.6222 C   0  0  0  0  0  0  0  0  0  0  0  0
   -9.4735   20.8467   -4.5752 C   0  0  0  0  0  0  0  0  0  0  0  0
   -9.4526   22.2288   -4.8243 C   0  0  0  0  0  0  0  0  0  0  0  0
   -9.3673   22.6616   -6.1646 C   0  0  0  0  0  0  0  0  0  0  0  0
   -9.3199   24.1208   -6.5349 C   0  0  0  0  0  0  0  0  0  0  0  0
   -9.3476   21.7104   -7.2099 C   0  0  0  0  0  0  0  0  0  0  0  0
   -9.4071   20.3363   -6.9653 C   0  0  0  0  0  0  0  0  0  0  0  0
   -9.5076   23.2014   -3.6519 C   0  0  0  0  0  0  0  0  0  0  0  0
   -8.6333   22.7309   -2.4702 C   0  0  0  0  0  0  0  0  0  0  0  0
   -9.2045   23.1388   -1.1067 C   0  0  0  0  0  0  0  0  0  0  0  0
   -9.7835   24.4784   -1.1808 N   0  0  0  0  0  0  0  0  0  0  0  0
  -10.0953   25.0101    0.1424 C   0  0  0  0  0  0  0  0  0  0  0  0
  -10.9615   24.5271   -2.0603 C   0  0  0  0  0  0  0  0  0  0  0  0
  -10.9427   23.4806   -3.1833 C   0  0  0  0  0  0  0  0  0  0  0  0
   -9.4241   18.5901   -5.2919 O   0  0  0  0  0  0  0  0  0  0  0  0
  -11.4766   17.5074   -4.5719 C   0  0  0  0  0  0  0  0  0  0  0  0
  -10.2621   18.3309   -4.1489 C   0  0  0  0  0  0  0  0  0  0  0  0
   -9.4175   17.5479   -3.1468 C   0  0  0  0  0  0  0  0  0  0  0  0
   -6.5379   16.6557  -10.5895 N   0  0  0  0  0  0  0  0  0  0  0  0
   -5.9399   16.6164   -9.7697 H   0  0  0  0  0  0  0  0  0  0  0  0
   -7.0983   15.4021  -10.9168 C   0  0  0  0  0  0  0  0  0  0  0  0
   -7.6554   15.2395  -12.1995 C   0  0  0  0  0  0  0  0  0  0  0  0
   -8.1296   13.9996  -12.6339 C   0  0  0  0  0  0  0  0  0  0  0  0
   -8.0412   12.8920  -11.7993 C   0  0  0  0  0  0  0  0  0  0  0  0
   -7.4882   13.0271  -10.5274 C   0  0  0  0  0  0  0  0  0  0  0  0
   -7.0261   14.2778  -10.0772 C   0  0  0  0  0  0  0  0  0  0  0  0
   -6.3956   14.3549   -8.4048 S   0  0  0  0  0  0  0  0  0  0  0  0
   -5.2883   15.2890   -8.3303 O   0  0  0  0  0  0  0  0  0  0  0  0
   -6.1786   12.9817   -7.9744 O   0  0  0  0  0  0  0  0  0  0  0  0
   -7.7351   15.0012   -7.4009 C   0  0  0  0  0  0  0  0  0  0  0  0
   -9.0605   15.0361   -8.1553 C   0  0  0  0  0  0  0  0  0  0  0  0
   -7.4251   16.3586   -6.7838 C   0  0  0  0  0  0  0  0  0  0  0  0
 28 29  1  0  0  0
 29 30  1  0  0  0
 29 27  1  0  0  0
 27 13  1  0  0  0
 13 14  2  0  0  0
 14 15  1  0  0  0
 15 20  1  0  0  0
 20 21  1  0  0  0
 21 22  1  0  0  0
 22 23  1  0  0  0
 23 24  1  0  0  0
 23 25  1  0  0  0
 25 26  1  0  0  0
 15 16  2  0  0  0
 16 17  1  0  0  0
 16 18  1  0  0  0
 18 19  2  0  0  0
 19 11  1  0  0  0
 11  1  1  0  0  0
  1  2  1  0  0  0
  2  3  2  0  0  0
  3 31  1  0  0  0
 31 33  1  0  0  0
 33 34  2  0  0  0
 34 35  1  0  0  0
 35 36  2  0  0  0
 36 37  1  0  0  0
 37 38  2  0  0  0
 38 39  1  0  0  0
 39 40  2  0  0  0
 39 41  2  0  0  0
 39 42  1  0  0  0
 42 43  1  0  0  0
 42 44  1  0  0  0
  3  4  1  0  0  0
  4  5  2  0  0  0
  5  6  1  0  0  0
  6  7  1  0  0  0
  7  8  2  0  0  0
  8  9  1  0  0  0
 19 13  1  0  0  0
 26 20  1  0  0  0
  9  1  2  0  0  0
 38 33  1  0  0  0
  8  4  1  0  0  0
 11 12  1  0  0  0
 31 32  1  0  0  0
  6 10  1  0  0  0
M  END
> <minimizedAffinity>
-9.49242

$$$$



 44 48  0  0  0  0  0  0  0  0999 V2000
   -8.2842   17.3632   -7.1366 C   0  0  0  0  0  0  0  0  0  0  0  0
   -7.4501   17.4258   -8.2259 N   0  0  0  0  0  0  0  0  0  0  0  0
   -6.4664   16.5020   -8.4311 C   0  0  0  0  0  0  0  0  0  0  0  0
   -6.4483   15.5304   -7.4390 C   0  0  0  0  0  0  0  0  0  0  0  0
   -5.5999   14.4633   -7.2975 C   0  0  0  0  0  0  0  0  0  0  0  0
   -6.0079   13.8576   -6.1396 N   0  0  0  0  0  0  0  0  0  0  0  0
   -7.0694   14.4439   -5.5524 N   0  0  0  0  0  0  0  0  0  0  0  0
   -7.3302   15.4938   -6.3381 C   0  0  0  0  0  0  0  0  0  0  0  0
   -8.2939   16.4182   -6.1662 N   0  0  0  0  0  0  0  0  0  0  0  0
   -5.6095   13.0409   -5.6880 H   0  0  0  0  0  0  0  0  0  0  0  0
   -9.2287   18.3865   -7.1366 N   0  0  0  0  0  0  0  0  0  0  0  0
   -9.8366   18.2863   -7.9401 H   0  0  0  0  0  0  0  0  0  0  0  0
   -9.4886   19.5570   -5.0428 C   0  0  0  0  0  0  0  0  0  0  0  0
   -9.6907   20.7161   -4.2932 C   0  0  0  0  0  0  0  0  0  0  0  0
   -9.7185   21.9792   -4.9071 C   0  0  0  0  0  0  0  0  0  0  0  0
   -9.5354   22.0432   -6.3047 C   0  0  0  0  0  0  0  0  0  0  0  0
   -9.5299   23.3498   -7.0539 C   0  0  0  0  0  0  0  0  0  0  0  0
   -9.3730   20.8515   -7.0472 C   0  0  0  0  0  0  0  0  0  0  0  0
   -9.3835   19.5922   -6.4426 C   0  0  0  0  0  0  0  0  0  0  0  0
   -9.9286   23.2228   -4.0511 C   0  0  0  0  0  0  0  0  0  0  0  0
   -8.6179   23.6938   -3.3859 C   0  0  0  0  0  0  0  0  0  0  0  0
   -8.8448   24.3410   -2.0143 C   0  0  0  0  0  0  0  0  0  0  0  0
  -10.0609   25.1510   -2.0319 N   0  0  0  0  0  0  0  0  0  0  0  0
  -10.1718   25.9913   -0.8434 C   0  0  0  0  0  0  0  0  0  0  0  0
  -11.2703   24.3343   -2.2157 C   0  0  0  0  0  0  0  0  0  0  0  0
  -11.0306   23.0357   -2.9987 C   0  0  0  0  0  0  0  0  0  0  0  0
   -9.4612   18.3602   -4.3628 O   0  0  0  0  0  0  0  0  0  0  0  0
  -11.7109   17.4426   -4.3670 C   0  0  0  0  0  0  0  0  0  0  0  0
  -10.6430   18.1766   -3.5592 C   0  0  0  0  0  0  0  0  0  0  0  0
  -10.2321   17.3427   -2.3482 C   0  0  0  0  0  0  0  0  0  0  0  0
   -5.6115   16.5433   -9.5554 N   0  0  0  0  0  0  0  0  0  0  0  0
   -5.0673   15.6859   -9.5542 H   0  0  0  0  0  0  0  0  0  0  0  0
   -6.1009   16.8770  -10.8367 C   0  0  0  0  0  0  0  0  0  0  0  0
   -6.4647   18.2152  -11.0797 C   0  0  0  0  0  0  0  0  0  0  0  0
   -6.8536   18.6432  -12.3511 C   0  0  0  0  0  0  0  0  0  0  0  0
   -6.8711   17.7440  -13.4104 C   0  0  0  0  0  0  0  0  0  0  0  0
   -6.5094   16.4155  -13.1957 C   0  0  0  0  0  0  0  0  0  0  0  0
   -6.1350   15.9742  -11.9129 C   0  0  0  0  0  0  0  0  0  0  0  0
   -5.7538   14.2356  -11.7329 S   0  0  0  0  0  0  0  0  0  0  0  0
   -4.6667   14.0571  -10.7892 O   0  0  0  0  0  0  0  0  0  0  0  0
   -5.6047   13.6975  -13.0768 O   0  0  0  0  0  0  0  0  0  0  0  0
   -7.2232   13.4769  -11.0368 C   0  0  0  0  0  0  0  0  0  0  0  0
   -7.2146   11.9582  -11.1793 C   0  0  0  0  0  0  0  0  0  0  0  0
   -8.5195   14.0661  -11.5771 C   0  0  0  0  0  0  0  0  0  0  0  0
 28 29  1  0  0  0
 29 30  1  0  0  0
 29 27  1  0  0  0
 27 13  1  0  0  0
 13 14  2  0  0  0
 14 15  1  0  0  0
 15 20  1  0  0  0
 20 21  1  0  0  0
 21 22  1  0  0  0
 22 23  1  0  0  0
 23 24  1  0  0  0
 23 25  1  0  0  0
 25 26  1  0  0  0
 15 16  2  0  0  0
 16 17  1  0  0  0
 16 18  1  0  0  0
 18 19  2  0  0  0
 19 11  1  0  0  0
 11  1  1  0  0  0
  1  2  1  0  0  0
  2  3  2  0  0  0
  3 31  1  0  0  0
 31 33  1  0  0  0
 33 34  2  0  0  0
 34 35  1  0  0  0
 35 36  2  0  0  0
 36 37  1  0  0  0
 37 38  2  0  0  0
 38 39  1  0  0  0
 39 40  2  0  0  0
 39 41  2  0  0  0
 39 42  1  0  0  0
 42 43  1  0  0  0
 42 44  1  0  0  0
  3  4  1  0  0  0
  4  5  2  0  0  0
  5  6  1  0  0  0
  6  7  1  0  0  0
  7  8  2  0  0  0
  8  9  1  0  0  0
 19 13  1  0  0  0
 26 20  1  0  0  0
  9  1  2  0  0  0
 38 33  1  0  0  0
  8  4  1  0  0  0
 11 12  1  0  0  0
 31 32  1  0  0  0
  6 10  1  0  0  0
M  END
> <minimizedAffinity>
-8.96885

$$$$



 44 48  0  0  0  0  0  0  0  0999 V2000
   -9.3398   20.8449   -7.0727 C   0  0  0  0  0  0  0  0  0  0  0  0
   -9.6864   20.2706   -5.8742 N   0  0  0  0  0  0  0  0  0  0  0  0
   -9.7524   20.9989   -4.7216 C   0  0  0  0  0  0  0  0  0  0  0  0
   -9.4530   22.3384   -4.9332 C   0  0  0  0  0  0  0  0  0  0  0  0
   -9.3981   23.3604   -4.0217 C   0  0  0  0  0  0  0  0  0  0  0  0
   -9.0291   24.4528   -4.7595 N   0  0  0  0  0  0  0  0  0  0  0  0
   -8.8744   24.2057   -6.0749 N   0  0  0  0  0  0  0  0  0  0  0  0
   -9.1106   22.8943   -6.1841 C   0  0  0  0  0  0  0  0  0  0  0  0
   -9.0585   22.1494   -7.3045 N   0  0  0  0  0  0  0  0  0  0  0  0
   -8.8629   25.3994   -4.4338 H   0  0  0  0  0  0  0  0  0  0  0  0
   -9.3596   19.9286   -8.1213 N   0  0  0  0  0  0  0  0  0  0  0  0
   -9.9668   20.2687   -8.8568 H   0  0  0  0  0  0  0  0  0  0  0  0
   -7.9929   18.3210   -9.2912 C   0  0  0  0  0  0  0  0  0  0  0  0
   -7.5611   17.0185   -9.5432 C   0  0  0  0  0  0  0  0  0  0  0  0
   -7.9955   15.9456   -8.7475 C   0  0  0  0  0  0  0  0  0  0  0  0
   -8.8812   16.2222   -7.6845 C   0  0  0  0  0  0  0  0  0  0  0  0
   -9.3897   15.1446   -6.7631 C   0  0  0  0  0  0  0  0  0  0  0  0
   -9.3358   17.5440   -7.4748 C   0  0  0  0  0  0  0  0  0  0  0  0
   -8.9345   18.6056   -8.2893 C   0  0  0  0  0  0  0  0  0  0  0  0
   -7.4902   14.5391   -9.0472 C   0  0  0  0  0  0  0  0  0  0  0  0
   -5.9523   14.4462   -8.9537 C   0  0  0  0  0  0  0  0  0  0  0  0
   -5.3560   13.4283   -9.9336 C   0  0  0  0  0  0  0  0  0  0  0  0
   -6.2175   12.2516  -10.0273 N   0  0  0  0  0  0  0  0  0  0  0  0
   -5.5639   11.1542  -10.7340 C   0  0  0  0  0  0  0  0  0  0  0  0
   -7.5224   12.5644  -10.6297 C   0  0  0  0  0  0  0  0  0  0  0  0
   -7.9809   14.0120  -10.4031 C   0  0  0  0  0  0  0  0  0  0  0  0
   -7.5093   19.3174  -10.1091 O   0  0  0  0  0  0  0  0  0  0  0  0
   -8.1385   20.2555  -12.2602 C   0  0  0  0  0  0  0  0  0  0  0  0
   -7.7019   19.0039  -11.5021 C   0  0  0  0  0  0  0  0  0  0  0  0
   -6.3608   18.5058  -12.0353 C   0  0  0  0  0  0  0  0  0  0  0  0
  -10.1236   20.4261   -3.4843 N   0  0  0  0  0  0  0  0  0  0  0  0
  -11.0145   19.9585   -3.6217 H   0  0  0  0  0  0  0  0  0  0  0  0
   -9.2128   19.6542   -2.7311 C   0  0  0  0  0  0  0  0  0  0  0  0
   -8.0371   20.2776   -2.2713 C   0  0  0  0  0  0  0  0  0  0  0  0
   -7.1424   19.6115   -1.4307 C   0  0  0  0  0  0  0  0  0  0  0  0
   -7.4137   18.3123   -1.0191 C   0  0  0  0  0  0  0  0  0  0  0  0
   -8.5741   17.6765   -1.4562 C   0  0  0  0  0  0  0  0  0  0  0  0
   -9.4698   18.3359   -2.3185 C   0  0  0  0  0  0  0  0  0  0  0  0
  -10.8943   17.4064   -2.8725 S   0  0  0  0  0  0  0  0  0  0  0  0
  -10.8742   17.2739   -4.3169 O   0  0  0  0  0  0  0  0  0  0  0  0
  -12.0598   18.0109   -2.2448 O   0  0  0  0  0  0  0  0  0  0  0  0
  -10.7218   15.7675   -2.1625 C   0  0  0  0  0  0  0  0  0  0  0  0
  -10.4842   14.6979   -3.2239 C   0  0  0  0  0  0  0  0  0  0  0  0
  -11.8787   15.3808   -1.2507 C   0  0  0  0  0  0  0  0  0  0  0  0
 28 29  1  0  0  0
 29 30  1  0  0  0
 29 27  1  0  0  0
 27 13  1  0  0  0
 13 14  2  0  0  0
 14 15  1  0  0  0
 15 20  1  0  0  0
 20 21  1  0  0  0
 21 22  1  0  0  0
 22 23  1  0  0  0
 23 24  1  0  0  0
 23 25  1  0  0  0
 25 26  1  0  0  0
 15 16  2  0  0  0
 16 17  1  0  0  0
 16 18  1  0  0  0
 18 19  2  0  0  0
 19 11  1  0  0  0
 11  1  1  0  0  0
  1  2  1  0  0  0
  2  3  2  0  0  0
  3 31  1  0  0  0
 31 33  1  0  0  0
 33 34  2  0  0  0
 34 35  1  0  0  0
 35 36  2  0  0  0
 36 37  1  0  0  0
 37 38  2  0  0  0
 38 39  1  0  0  0
 39 40  2  0  0  0
 39 41  2  0  0  0
 39 42  1  0  0  0
 42 43  1  0  0  0
 42 44  1  0  0  0
  3  4  1  0  0  0
  4  5  2  0  0  0
  5  6  1  0  0  0
  6  7  1  0  0  0
  7  8  2  0  0  0
  8  9  1  0  0  0
 19 13  1  0  0  0
 26 20  1  0  0  0
  9  1  2  0  0  0
 38 33  1  0  0  0
  8  4  1  0  0  0
 11 12  1  0  0  0
 31 32  1  0  0  0
  6 10  1  0  0  0
M  END
> <minimizedAffinity>
-8.78862

$$$$



 44 48  0  0  0  0  0  0  0  0999 V2000
   -9.8031   21.3643   -6.5606 C   0  0  0  0  0  0  0  0  0  0  0  0
  -10.1123   20.9348   -5.2932 N   0  0  0  0  0  0  0  0  0  0  0  0
   -9.9876   21.7526   -4.2076 C   0  0  0  0  0  0  0  0  0  0  0  0
   -9.5448   23.0213   -4.5584 C   0  0  0  0  0  0  0  0  0  0  0  0
   -9.2853   24.0951   -3.7472 C   0  0  0  0  0  0  0  0  0  0  0  0
   -8.8499   25.0696   -4.6043 N   0  0  0  0  0  0  0  0  0  0  0  0
   -8.8418   24.7032   -5.9009 N   0  0  0  0  0  0  0  0  0  0  0  0
   -9.2465   23.4292   -5.8759 C   0  0  0  0  0  0  0  0  0  0  0  0
   -9.3843   22.5992   -6.9271 N   0  0  0  0  0  0  0  0  0  0  0  0
   -8.5406   26.0089   -4.3768 H   0  0  0  0  0  0  0  0  0  0  0  0
  -10.0267   20.3799   -7.5199 N   0  0  0  0  0  0  0  0  0  0  0  0
  -11.0211   20.2076   -7.6029 H   0  0  0  0  0  0  0  0  0  0  0  0
   -9.1245   18.1494   -7.6994 C   0  0  0  0  0  0  0  0  0  0  0  0
   -8.3050   17.1938   -8.3007 C   0  0  0  0  0  0  0  0  0  0  0  0
   -7.6029   17.4831   -9.4824 C   0  0  0  0  0  0  0  0  0  0  0  0
   -7.7504   18.7684  -10.0455 C   0  0  0  0  0  0  0  0  0  0  0  0
   -7.0552   19.1704  -11.3198 C   0  0  0  0  0  0  0  0  0  0  0  0
   -8.5544   19.7321   -9.3954 C   0  0  0  0  0  0  0  0  0  0  0  0
   -9.2225   19.4577   -8.1996 C   0  0  0  0  0  0  0  0  0  0  0  0
   -6.7282   16.4072  -10.1155 C   0  0  0  0  0  0  0  0  0  0  0  0
   -7.4468   15.6891  -11.2775 C   0  0  0  0  0  0  0  0  0  0  0  0
   -7.0378   14.2174  -11.4126 C   0  0  0  0  0  0  0  0  0  0  0  0
   -5.6091   14.0627  -11.1470 N   0  0  0  0  0  0  0  0  0  0  0  0
   -5.1267   12.7370  -11.5219 C   0  0  0  0  0  0  0  0  0  0  0  0
   -5.2663   14.3740   -9.7509 C   0  0  0  0  0  0  0  0  0  0  0  0
   -6.2099   15.3888   -9.0903 C   0  0  0  0  0  0  0  0  0  0  0  0
   -9.7885   17.7813   -6.5508 O   0  0  0  0  0  0  0  0  0  0  0  0
   -8.4569   18.2524   -4.5739 C   0  0  0  0  0  0  0  0  0  0  0  0
   -8.8958   17.1946   -5.5839 C   0  0  0  0  0  0  0  0  0  0  0  0
   -9.6708   16.0833   -4.8802 C   0  0  0  0  0  0  0  0  0  0  0  0
  -10.3176   21.3307   -2.8999 N   0  0  0  0  0  0  0  0  0  0  0  0
  -11.2295   20.8861   -2.9458 H   0  0  0  0  0  0  0  0  0  0  0  0
   -9.3981   20.6091   -2.1084 C   0  0  0  0  0  0  0  0  0  0  0  0
   -8.1149   21.1563   -1.9180 C   0  0  0  0  0  0  0  0  0  0  0  0
   -7.1890   20.5564   -1.0614 C   0  0  0  0  0  0  0  0  0  0  0  0
   -7.5337   19.4047   -0.3644 C   0  0  0  0  0  0  0  0  0  0  0  0
   -8.8001   18.8480   -0.5320 C   0  0  0  0  0  0  0  0  0  0  0  0
   -9.7304   19.4372   -1.4081 C   0  0  0  0  0  0  0  0  0  0  0  0
  -11.3026   18.6053   -1.6001 S   0  0  0  0  0  0  0  0  0  0  0  0
  -11.6045   18.4253   -3.0075 O   0  0  0  0  0  0  0  0  0  0  0  0
  -12.2596   19.3196   -0.7684 O   0  0  0  0  0  0  0  0  0  0  0  0
  -11.0957   16.9817   -0.8649 C   0  0  0  0  0  0  0  0  0  0  0  0
  -11.6815   15.8729   -1.7334 C   0  0  0  0  0  0  0  0  0  0  0  0
  -11.6258   16.8933    0.5601 C   0  0  0  0  0  0  0  0  0  0  0  0
 28 29  1  0  0  0
 29 30  1  0  0  0
 29 27  1  0  0  0
 27 13  1  0  0  0
 13 14  2  0  0  0
 14 15  1  0  0  0
 15 20  1  0  0  0
 20 21  1  0  0  0
 21 22  1  0  0  0
 22 23  1  0  0  0
 23 24  1  0  0  0
 23 25  1  0  0  0
 25 26  1  0  0  0
 15 16  2  0  0  0
 16 17  1  0  0  0
 16 18  1  0  0  0
 18 19  2  0  0  0
 19 11  1  0  0  0
 11  1  1  0  0  0
  1  2  1  0  0  0
  2  3  2  0  0  0
  3 31  1  0  0  0
 31 33  1  0  0  0
 33 34  2  0  0  0
 34 35  1  0  0  0
 35 36  2  0  0  0
 36 37  1  0  0  0
 37 38  2  0  0  0
 38 39  1  0  0  0
 39 40  2  0  0  0
 39 41  2  0  0  0
 39 42  1  0  0  0
 42 43  1  0  0  0
 42 44  1  0  0  0
  3  4  1  0  0  0
  4  5  2  0  0  0
  5  6  1  0  0  0
  6  7  1  0  0  0
  7  8  2  0  0  0
  8  9  1  0  0  0
 19 13  1  0  0  0
 26 20  1  0  0  0
  9  1  2  0  0  0
 38 33  1  0  0  0
  8  4  1  0  0  0
 11 12  1  0  0  0
 31 32  1  0  0  0
  6 10  1  0  0  0
M  END
> <minimizedAffinity>
-8.71311

$$$$



 44 48  0  0  0  0  0  0  0  0999 V2000
   -8.2315   17.2400   -6.0239 C   0  0  0  0  0  0  0  0  0  0  0  0
   -7.4509   17.6880   -7.0614 N   0  0  0  0  0  0  0  0  0  0  0  0
   -7.3375   16.9892   -8.2284 C   0  0  0  0  0  0  0  0  0  0  0  0
   -8.1032   15.8306   -8.2190 C   0  0  0  0  0  0  0  0  0  0  0  0
   -8.2273   14.8753   -9.1939 C   0  0  0  0  0  0  0  0  0  0  0  0
   -9.0746   13.9466   -8.6522 N   0  0  0  0  0  0  0  0  0  0  0  0
   -9.5196   14.2562   -7.4187 N   0  0  0  0  0  0  0  0  0  0  0  0
   -8.9023   15.4078   -7.1355 C   0  0  0  0  0  0  0  0  0  0  0  0
   -8.9967   16.1226   -5.9984 N   0  0  0  0  0  0  0  0  0  0  0  0
   -9.3935   13.0762   -9.0649 H   0  0  0  0  0  0  0  0  0  0  0  0
   -8.2241   18.1168   -4.9421 N   0  0  0  0  0  0  0  0  0  0  0  0
   -7.7591   17.6804   -4.1556 H   0  0  0  0  0  0  0  0  0  0  0  0
   -8.9267   19.7324   -3.2936 C   0  0  0  0  0  0  0  0  0  0  0  0
   -9.6014   20.8919   -2.9105 C   0  0  0  0  0  0  0  0  0  0  0  0
  -10.1945   21.7332   -3.8663 C   0  0  0  0  0  0  0  0  0  0  0  0
  -10.0882   21.3729   -5.2264 C   0  0  0  0  0  0  0  0  0  0  0  0
  -10.6735   22.2171   -6.3279 C   0  0  0  0  0  0  0  0  0  0  0  0
   -9.4347   20.1722   -5.5860 C   0  0  0  0  0  0  0  0  0  0  0  0
   -8.8779   19.3154   -4.6335 C   0  0  0  0  0  0  0  0  0  0  0  0
  -10.9112   22.9980   -3.4080 C   0  0  0  0  0  0  0  0  0  0  0  0
   -9.9655   24.2173   -3.3747 C   0  0  0  0  0  0  0  0  0  0  0  0
  -10.3209   25.2171   -2.2675 C   0  0  0  0  0  0  0  0  0  0  0  0
  -11.7717   25.3349   -2.1386 N   0  0  0  0  0  0  0  0  0  0  0  0
  -12.1528   26.4610   -1.2916 C   0  0  0  0  0  0  0  0  0  0  0  0
  -12.3912   24.0867   -1.6677 C   0  0  0  0  0  0  0  0  0  0  0  0
  -11.6117   22.8216   -2.0533 C   0  0  0  0  0  0  0  0  0  0  0  0
   -8.3617   18.9701   -2.2960 O   0  0  0  0  0  0  0  0  0  0  0  0
   -9.7048   16.9977   -1.8391 C   0  0  0  0  0  0  0  0  0  0  0  0
   -9.3601   18.4230   -1.4130 C   0  0  0  0  0  0  0  0  0  0  0  0
   -8.7601   18.4228   -0.0092 C   0  0  0  0  0  0  0  0  0  0  0  0
   -6.5519   17.4453   -9.3108 N   0  0  0  0  0  0  0  0  0  0  0  0
   -6.0226   16.6509   -9.6572 H   0  0  0  0  0  0  0  0  0  0  0  0
   -7.1130   18.2211  -10.3481 C   0  0  0  0  0  0  0  0  0  0  0  0
   -7.9668   19.2832   -9.9941 C   0  0  0  0  0  0  0  0  0  0  0  0
   -8.4724   20.1607  -10.9560 C   0  0  0  0  0  0  0  0  0  0  0  0
   -8.1207   20.0036  -12.2913 C   0  0  0  0  0  0  0  0  0  0  0  0
   -7.2722   18.9633  -12.6650 C   0  0  0  0  0  0  0  0  0  0  0  0
   -6.7750   18.0647  -11.7029 C   0  0  0  0  0  0  0  0  0  0  0  0
   -5.7477   16.7265  -12.2981 S   0  0  0  0  0  0  0  0  0  0  0  0
   -4.4835   16.7120  -11.5869 O   0  0  0  0  0  0  0  0  0  0  0  0
   -5.7289   16.8257  -13.7499 O   0  0  0  0  0  0  0  0  0  0  0  0
   -6.6263   15.2137  -11.8989 C   0  0  0  0  0  0  0  0  0  0  0  0
   -5.7514   13.9748  -12.0619 C   0  0  0  0  0  0  0  0  0  0  0  0
   -7.9359   15.0584  -12.6605 C   0  0  0  0  0  0  0  0  0  0  0  0
 28 29  1  0  0  0
 29 30  1  0  0  0
 29 27  1  0  0  0
 27 13  1  0  0  0
 13 14  2  0  0  0
 14 15  1  0  0  0
 15 20  1  0  0  0
 20 21  1  0  0  0
 21 22  1  0  0  0
 22 23  1  0  0  0
 23 24  1  0  0  0
 23 25  1  0  0  0
 25 26  1  0  0  0
 15 16  2  0  0  0
 16 17  1  0  0  0
 16 18  1  0  0  0
 18 19  2  0  0  0
 19 11  1  0  0  0
 11  1  1  0  0  0
  1  2  1  0  0  0
  2  3  2  0  0  0
  3 31  1  0  0  0
 31 33  1  0  0  0
 33 34  2  0  0  0
 34 35  1  0  0  0
 35 36  2  0  0  0
 36 37  1  0  0  0
 37 38  2  0  0  0
 38 39  1  0  0  0
 39 40  2  0  0  0
 39 41  2  0  0  0
 39 42  1  0  0  0
 42 43  1  0  0  0
 42 44  1  0  0  0
  3  4  1  0  0  0
  4  5  2  0  0  0
  5  6  1  0  0  0
  6  7  1  0  0  0
  7  8  2  0  0  0
  8  9  1  0  0  0
 19 13  1  0  0  0
 26 20  1  0  0  0
  9  1  2  0  0  0
 38 33  1  0  0  0
  8  4  1  0  0  0
 11 12  1  0  0  0
 31 32  1  0  0  0
  6 10  1  0  0  0
M  END
> <minimizedAffinity>
-8.60410

$$$$



 44 48  0  0  0  0  0  0  0  0999 V2000
   -9.3335   20.9349   -7.0174 C   0  0  0  0  0  0  0  0  0  0  0  0
   -9.9778   20.4116   -5.9231 N   0  0  0  0  0  0  0  0  0  0  0  0
  -10.1273   21.1247   -4.7689 C   0  0  0  0  0  0  0  0  0  0  0  0
   -9.5785   22.3967   -4.8669 C   0  0  0  0  0  0  0  0  0  0  0  0
   -9.5193   23.3820   -3.9161 C   0  0  0  0  0  0  0  0  0  0  0  0
   -8.8499   24.4058   -4.5306 N   0  0  0  0  0  0  0  0  0  0  0  0
   -8.5061   24.1540   -5.8088 N   0  0  0  0  0  0  0  0  0  0  0  0
   -8.9318   22.9034   -6.0142 C   0  0  0  0  0  0  0  0  0  0  0  0
   -8.8044   22.1758   -7.1400 N   0  0  0  0  0  0  0  0  0  0  0  0
   -8.5907   25.3059   -4.1402 H   0  0  0  0  0  0  0  0  0  0  0  0
   -9.3167   20.0497   -8.0923 N   0  0  0  0  0  0  0  0  0  0  0  0
   -9.8632   20.4319   -8.8543 H   0  0  0  0  0  0  0  0  0  0  0  0
   -8.0361   18.4096   -9.3135 C   0  0  0  0  0  0  0  0  0  0  0  0
   -7.6431   17.0975   -9.5784 C   0  0  0  0  0  0  0  0  0  0  0  0
   -8.0648   16.0367   -8.7600 C   0  0  0  0  0  0  0  0  0  0  0  0
   -8.8975   16.3355   -7.6607 C   0  0  0  0  0  0  0  0  0  0  0  0
   -9.3879   15.2720   -6.7135 C   0  0  0  0  0  0  0  0  0  0  0  0
   -9.3149   17.6673   -7.4372 C   0  0  0  0  0  0  0  0  0  0  0  0
   -8.9272   18.7175   -8.2729 C   0  0  0  0  0  0  0  0  0  0  0  0
   -7.6026   14.6188   -9.0753 C   0  0  0  0  0  0  0  0  0  0  0  0
   -6.0919   14.4338   -8.8187 C   0  0  0  0  0  0  0  0  0  0  0  0
   -5.4429   13.4296   -9.7789 C   0  0  0  0  0  0  0  0  0  0  0  0
   -6.3481   12.3097  -10.0277 N   0  0  0  0  0  0  0  0  0  0  0  0
   -5.6770   11.2103  -10.7146 C   0  0  0  0  0  0  0  0  0  0  0  0
   -7.5591   12.7241  -10.7523 C   0  0  0  0  0  0  0  0  0  0  0  0
   -7.9646   14.1835  -10.5024 C   0  0  0  0  0  0  0  0  0  0  0  0
   -7.5678   19.3929  -10.1559 O   0  0  0  0  0  0  0  0  0  0  0  0
   -8.0365   20.1607  -12.4129 C   0  0  0  0  0  0  0  0  0  0  0  0
   -7.6203   18.9819  -11.5359 C   0  0  0  0  0  0  0  0  0  0  0  0
   -6.2173   18.5133  -11.9139 C   0  0  0  0  0  0  0  0  0  0  0  0
  -10.8022   20.6065   -3.6407 N   0  0  0  0  0  0  0  0  0  0  0  0
  -11.7610   20.9387   -3.6819 H   0  0  0  0  0  0  0  0  0  0  0  0
  -10.7125   19.2405   -3.2963 C   0  0  0  0  0  0  0  0  0  0  0  0
  -11.2798   18.2968   -4.1738 C   0  0  0  0  0  0  0  0  0  0  0  0
  -11.1366   16.9245   -3.9566 C   0  0  0  0  0  0  0  0  0  0  0  0
  -10.4083   16.4674   -2.8650 C   0  0  0  0  0  0  0  0  0  0  0  0
   -9.8324   17.3824   -1.9858 C   0  0  0  0  0  0  0  0  0  0  0  0
   -9.9894   18.7661   -2.1889 C   0  0  0  0  0  0  0  0  0  0  0  0
   -9.2662   19.8522   -0.9651 S   0  0  0  0  0  0  0  0  0  0  0  0
   -9.1683   19.1716    0.3122 O   0  0  0  0  0  0  0  0  0  0  0  0
  -10.0006   21.1068   -1.0313 O   0  0  0  0  0  0  0  0  0  0  0  0
   -7.6016   20.2018   -1.5366 C   0  0  0  0  0  0  0  0  0  0  0  0
   -6.5998   19.1429   -1.0869 C   0  0  0  0  0  0  0  0  0  0  0  0
   -7.1186   21.5983   -1.1679 C   0  0  0  0  0  0  0  0  0  0  0  0
 28 29  1  0  0  0
 29 30  1  0  0  0
 29 27  1  0  0  0
 27 13  1  0  0  0
 13 14  2  0  0  0
 14 15  1  0  0  0
 15 20  1  0  0  0
 20 21  1  0  0  0
 21 22  1  0  0  0
 22 23  1  0  0  0
 23 24  1  0  0  0
 23 25  1  0  0  0
 25 26  1  0  0  0
 15 16  2  0  0  0
 16 17  1  0  0  0
 16 18  1  0  0  0
 18 19  2  0  0  0
 19 11  1  0  0  0
 11  1  1  0  0  0
  1  2  1  0  0  0
  2  3  2  0  0  0
  3 31  1  0  0  0
 31 33  1  0  0  0
 33 34  2  0  0  0
 34 35  1  0  0  0
 35 36  2  0  0  0
 36 37  1  0  0  0
 37 38  2  0  0  0
 38 39  1  0  0  0
 39 40  2  0  0  0
 39 41  2  0  0  0
 39 42  1  0  0  0
 42 43  1  0  0  0
 42 44  1  0  0  0
  3  4  1  0  0  0
  4  5  2  0  0  0
  5  6  1  0  0  0
  6  7  1  0  0  0
  7  8  2  0  0  0
  8  9  1  0  0  0
 19 13  1  0  0  0
 26 20  1  0  0  0
  9  1  2  0  0  0
 38 33  1  0  0  0
  8  4  1  0  0  0
 11 12  1  0  0  0
 31 32  1  0  0  0
  6 10  1  0  0  0
M  END
> <minimizedAffinity>
-8.51642

$$$$



 44 48  0  0  0  0  0  0  0  0999 V2000
   -9.8395   21.1330   -6.8820 C   0  0  0  0  0  0  0  0  0  0  0  0
  -10.5532   20.9107   -5.7298 N   0  0  0  0  0  0  0  0  0  0  0  0
  -10.5154   21.7847   -4.6820 C   0  0  0  0  0  0  0  0  0  0  0  0
   -9.7077   22.8828   -4.9476 C   0  0  0  0  0  0  0  0  0  0  0  0
   -9.4128   23.9479   -4.1371 C   0  0  0  0  0  0  0  0  0  0  0  0
   -8.5542   24.7119   -4.8809 N   0  0  0  0  0  0  0  0  0  0  0  0
   -8.3059   24.2255   -6.1126 N   0  0  0  0  0  0  0  0  0  0  0  0
   -8.9967   23.0815   -6.1502 C   0  0  0  0  0  0  0  0  0  0  0  0
   -9.0583   22.2020   -7.1679 N   0  0  0  0  0  0  0  0  0  0  0  0
   -8.0969   25.5774   -4.6137 H   0  0  0  0  0  0  0  0  0  0  0  0
  -10.0418   20.1318   -7.8286 N   0  0  0  0  0  0  0  0  0  0  0  0
  -11.0350   20.0035   -7.9788 H   0  0  0  0  0  0  0  0  0  0  0  0
   -9.2425   17.8561   -7.8868 C   0  0  0  0  0  0  0  0  0  0  0  0
   -8.4299   16.8457   -8.4018 C   0  0  0  0  0  0  0  0  0  0  0  0
   -7.6286   17.0681   -9.5337 C   0  0  0  0  0  0  0  0  0  0  0  0
   -7.6688   18.3432  -10.1367 C   0  0  0  0  0  0  0  0  0  0  0  0
   -6.8617   18.6759  -11.3640 C   0  0  0  0  0  0  0  0  0  0  0  0
   -8.4691   19.3623   -9.5720 C   0  0  0  0  0  0  0  0  0  0  0  0
   -9.2370   19.1535   -8.4238 C   0  0  0  0  0  0  0  0  0  0  0  0
   -6.7647   15.9341  -10.0735 C   0  0  0  0  0  0  0  0  0  0  0  0
   -7.4933   15.1236  -11.1664 C   0  0  0  0  0  0  0  0  0  0  0  0
   -7.0964   13.6423  -11.1740 C   0  0  0  0  0  0  0  0  0  0  0  0
   -5.6681   13.4997  -10.9004 N   0  0  0  0  0  0  0  0  0  0  0  0
   -5.1975   12.1425  -11.1599 C   0  0  0  0  0  0  0  0  0  0  0  0
   -5.3176   13.9284   -9.5377 C   0  0  0  0  0  0  0  0  0  0  0  0
   -6.2507   15.0046   -8.9651 C   0  0  0  0  0  0  0  0  0  0  0  0
  -10.0075   17.5522   -6.7831 O   0  0  0  0  0  0  0  0  0  0  0  0
   -8.5624   18.3144   -4.9848 C   0  0  0  0  0  0  0  0  0  0  0  0
   -9.1961   17.1102   -5.6775 C   0  0  0  0  0  0  0  0  0  0  0  0
  -10.1224   16.3742   -4.7126 C   0  0  0  0  0  0  0  0  0  0  0  0
  -11.2570   21.5785   -3.4970 N   0  0  0  0  0  0  0  0  0  0  0  0
  -11.8622   20.7782   -3.6534 H   0  0  0  0  0  0  0  0  0  0  0  0
  -10.6272   21.5476   -2.2340 C   0  0  0  0  0  0  0  0  0  0  0  0
   -9.5000   20.7189   -2.0754 C   0  0  0  0  0  0  0  0  0  0  0  0
   -8.7601   20.7174   -0.8908 C   0  0  0  0  0  0  0  0  0  0  0  0
   -9.1232   21.5577    0.1548 C   0  0  0  0  0  0  0  0  0  0  0  0
  -10.2316   22.3913    0.0190 C   0  0  0  0  0  0  0  0  0  0  0  0
  -10.9921   22.3833   -1.1651 C   0  0  0  0  0  0  0  0  0  0  0  0
  -12.4329   23.4426   -1.2102 S   0  0  0  0  0  0  0  0  0  0  0  0
  -13.5986   22.6843   -1.6230 O   0  0  0  0  0  0  0  0  0  0  0  0
  -12.0624   24.6226   -1.9771 O   0  0  0  0  0  0  0  0  0  0  0  0
  -12.6967   23.9904    0.4781 C   0  0  0  0  0  0  0  0  0  0  0  0
  -14.0766   23.6069    1.0032 C   0  0  0  0  0  0  0  0  0  0  0  0
  -12.4332   25.4771    0.6775 C   0  0  0  0  0  0  0  0  0  0  0  0
 28 29  1  0  0  0
 29 30  1  0  0  0
 29 27  1  0  0  0
 27 13  1  0  0  0
 13 14  2  0  0  0
 14 15  1  0  0  0
 15 20  1  0  0  0
 20 21  1  0  0  0
 21 22  1  0  0  0
 22 23  1  0  0  0
 23 24  1  0  0  0
 23 25  1  0  0  0
 25 26  1  0  0  0
 15 16  2  0  0  0
 16 17  1  0  0  0
 16 18  1  0  0  0
 18 19  2  0  0  0
 19 11  1  0  0  0
 11  1  1  0  0  0
  1  2  1  0  0  0
  2  3  2  0  0  0
  3 31  1  0  0  0
 31 33  1  0  0  0
 33 34  2  0  0  0
 34 35  1  0  0  0
 35 36  2  0  0  0
 36 37  1  0  0  0
 37 38  2  0  0  0
 38 39  1  0  0  0
 39 40  2  0  0  0
 39 41  2  0  0  0
 39 42  1  0  0  0
 42 43  1  0  0  0
 42 44  1  0  0  0
  3  4  1  0  0  0
  4  5  2  0  0  0
  5  6  1  0  0  0
  6  7  1  0  0  0
  7  8  2  0  0  0
  8  9  1  0  0  0
 19 13  1  0  0  0
 26 20  1  0  0  0
  9  1  2  0  0  0
 38 33  1  0  0  0
  8  4  1  0  0  0
 11 12  1  0  0  0
 31 32  1  0  0  0
  6 10  1  0  0  0
M  END
> <minimizedAffinity>
-8.37590

$$$$
