


 44 48  0  0  0  0  0  0  0  0999 V2000
   -8.2916   19.6326  -10.3463 C   0  0  0  0  0  0  0  0  0  0  0  0
   -7.4851   18.5223  -10.2449 N   0  0  0  0  0  0  0  0  0  0  0  0
   -6.8483   17.9974  -11.3295 C   0  0  0  0  0  0  0  0  0  0  0  0
   -7.1043   18.7194  -12.4923 C   0  0  0  0  0  0  0  0  0  0  0  0
   -6.5881   18.5630  -13.7525 C   0  0  0  0  0  0  0  0  0  0  0  0
   -7.1625   19.5628  -14.4917 N   0  0  0  0  0  0  0  0  0  0  0  0
   -7.9815   20.3670  -13.7894 N   0  0  0  0  0  0  0  0  0  0  0  0
   -7.9405   19.8583  -12.5532 C   0  0  0  0  0  0  0  0  0  0  0  0
   -8.5650   20.3406  -11.4652 N   0  0  0  0  0  0  0  0  0  0  0  0
   -7.0341   19.7632  -15.4790 H   0  0  0  0  0  0  0  0  0  0  0  0
   -8.8558   20.0054   -9.1298 N   0  0  0  0  0  0  0  0  0  0  0  0
   -9.3952   20.8549   -9.2296 H   0  0  0  0  0  0  0  0  0  0  0  0
   -9.2072   20.1484   -6.7401 C   0  0  0  0  0  0  0  0  0  0  0  0
   -9.4091   19.5369   -5.5021 C   0  0  0  0  0  0  0  0  0  0  0  0
   -9.4937   18.1336   -5.3680 C   0  0  0  0  0  0  0  0  0  0  0  0
   -9.3147   17.3373   -6.5172 C   0  0  0  0  0  0  0  0  0  0  0  0
   -9.3667   15.8312   -6.4851 C   0  0  0  0  0  0  0  0  0  0  0  0
   -9.1082   17.9606   -7.7627 C   0  0  0  0  0  0  0  0  0  0  0  0
   -9.0674   19.3530   -7.8993 C   0  0  0  0  0  0  0  0  0  0  0  0
   -9.7291   17.5182   -3.9918 C   0  0  0  0  0  0  0  0  0  0  0  0
   -8.9996   18.3054   -2.8884 C   0  0  0  0  0  0  0  0  0  0  0  0
   -9.7612   18.2985   -1.5574 C   0  0  0  0  0  0  0  0  0  0  0  0
  -10.4004   17.0205   -1.2345 N   0  0  0  0  0  0  0  0  0  0  0  0
   -9.4229   15.9954   -0.8703 C   0  0  0  0  0  0  0  0  0  0  0  0
  -11.3131   16.5552   -2.2926 C   0  0  0  0  0  0  0  0  0  0  0  0
  -11.2068   17.3150   -3.6245 C   0  0  0  0  0  0  0  0  0  0  0  0
   -9.1165   21.4969   -6.9671 O   0  0  0  0  0  0  0  0  0  0  0  0
  -10.9207   22.6968   -5.7761 C   0  0  0  0  0  0  0  0  0  0  0  0
   -9.4237   22.5045   -6.0006 C   0  0  0  0  0  0  0  0  0  0  0  0
   -8.6318   23.7987   -6.1617 C   0  0  0  0  0  0  0  0  0  0  0  0
   -5.9718   16.9285  -11.1352 N   0  0  0  0  0  0  0  0  0  0  0  0
   -5.0481   17.1806  -11.5015 H   0  0  0  0  0  0  0  0  0  0  0  0
   -5.8959   15.9778  -10.1013 C   0  0  0  0  0  0  0  0  0  0  0  0
   -5.9780   16.3561   -8.7532 C   0  0  0  0  0  0  0  0  0  0  0  0
   -5.8836   15.4107   -7.7274 C   0  0  0  0  0  0  0  0  0  0  0  0
   -5.6814   14.0669   -8.0262 C   0  0  0  0  0  0  0  0  0  0  0  0
   -5.5827   13.6632   -9.3566 C   0  0  0  0  0  0  0  0  0  0  0  0
   -5.6955   14.6128  -10.3824 C   0  0  0  0  0  0  0  0  0  0  0  0
   -5.5684   14.0558  -12.0718 S   0  0  0  0  0  0  0  0  0  0  0  0
   -5.2493   15.2375  -12.8569 O   0  0  0  0  0  0  0  0  0  0  0  0
   -4.6865   12.9001  -12.0906 O   0  0  0  0  0  0  0  0  0  0  0  0
   -7.2186   13.4860  -12.5162 C   0  0  0  0  0  0  0  0  0  0  0  0
   -7.4961   12.1332  -11.8613 C   0  0  0  0  0  0  0  0  0  0  0  0
   -8.3007   14.4952  -12.1455 C   0  0  0  0  0  0  0  0  0  0  0  0
 28 29  1  0  0  0
 29 30  1  0  0  0
 29 27  1  0  0  0
 27 13  1  0  0  0
 13 14  2  0  0  0
 14 15  1  0  0  0
 15 20  1  0  0  0
 20 21  1  0  0  0
 21 22  1  0  0  0
 22 23  1  0  0  0
 23 24  1  0  0  0
 23 25  1  0  0  0
 25 26  1  0  0  0
 15 16  2  0  0  0
 16 17  1  0  0  0
 16 18  1  0  0  0
 18 19  2  0  0  0
 19 11  1  0  0  0
 11  1  1  0  0  0
  1  2  1  0  0  0
  2  3  2  0  0  0
  3 31  1  0  0  0
 31 33  1  0  0  0
 33 34  2  0  0  0
 34 35  1  0  0  0
 35 36  2  0  0  0
 36 37  1  0  0  0
 37 38  2  0  0  0
 38 39  1  0  0  0
 39 40  2  0  0  0
 39 41  2  0  0  0
 39 42  1  0  0  0
 42 43  1  0  0  0
 42 44  1  0  0  0
  3  4  1  0  0  0
  4  5  2  0  0  0
  5  6  1  0  0  0
  6  7  1  0  0  0
  7  8  2  0  0  0
  8  9  1  0  0  0
 19 13  1  0  0  0
 26 20  1  0  0  0
  9  1  2  0  0  0
 38 33  1  0  0  0
  8  4  1  0  0  0
 11 12  1  0  0  0
 31 32  1  0  0  0
  6 10  1  0  0  0
M  END
> <minimizedAffinity>
-10.32673

$$$$



 44 48  0  0  0  0  0  0  0  0999 V2000
   -8.6833   19.1156   -9.4469 C   0  0  0  0  0  0  0  0  0  0  0  0
   -7.8090   18.0617   -9.5821 N   0  0  0  0  0  0  0  0  0  0  0  0
   -7.1070   17.8557  -10.7319 C   0  0  0  0  0  0  0  0  0  0  0  0
   -7.3749   18.8253  -11.6947 C   0  0  0  0  0  0  0  0  0  0  0  0
   -6.8121   19.0123  -12.9306 C   0  0  0  0  0  0  0  0  0  0  0  0
   -7.4285   20.1289  -13.4297 N   0  0  0  0  0  0  0  0  0  0  0  0
   -8.3192   20.6887  -12.5906 N   0  0  0  0  0  0  0  0  0  0  0  0
   -8.2819   19.8954  -11.5146 C   0  0  0  0  0  0  0  0  0  0  0  0
   -8.9690   20.0600  -10.3713 N   0  0  0  0  0  0  0  0  0  0  0  0
   -7.2841   20.5724  -14.3318 H   0  0  0  0  0  0  0  0  0  0  0  0
   -9.3069   19.1461   -8.2029 N   0  0  0  0  0  0  0  0  0  0  0  0
   -9.5948   18.2180   -7.9229 H   0  0  0  0  0  0  0  0  0  0  0  0
   -9.7253   19.6308   -5.8696 C   0  0  0  0  0  0  0  0  0  0  0  0
   -9.8200   20.5390   -4.8144 C   0  0  0  0  0  0  0  0  0  0  0  0
   -9.5698   21.9176   -4.9918 C   0  0  0  0  0  0  0  0  0  0  0  0
   -9.2684   22.3839   -6.2874 C   0  0  0  0  0  0  0  0  0  0  0  0
   -9.0023   23.8358   -6.5929 C   0  0  0  0  0  0  0  0  0  0  0  0
   -9.1775   21.4626   -7.3482 C   0  0  0  0  0  0  0  0  0  0  0  0
   -9.3841   20.0910   -7.1610 C   0  0  0  0  0  0  0  0  0  0  0  0
   -9.6744   22.8648   -3.8002 C   0  0  0  0  0  0  0  0  0  0  0  0
  -11.1405   23.1117   -3.4017 C   0  0  0  0  0  0  0  0  0  0  0  0
  -11.3141   23.3216   -1.8925 C   0  0  0  0  0  0  0  0  0  0  0  0
  -10.2499   24.1102   -1.2667 N   0  0  0  0  0  0  0  0  0  0  0  0
  -10.3232   25.5227   -1.6389 C   0  0  0  0  0  0  0  0  0  0  0  0
   -8.9086   23.5502   -1.5051 C   0  0  0  0  0  0  0  0  0  0  0  0
   -8.8437   22.4500   -2.5765 C   0  0  0  0  0  0  0  0  0  0  0  0
   -9.9447   18.2802   -5.7918 O   0  0  0  0  0  0  0  0  0  0  0  0
   -8.7210   16.1386   -5.9635 C   0  0  0  0  0  0  0  0  0  0  0  0
   -9.0858   17.3563   -5.1193 C   0  0  0  0  0  0  0  0  0  0  0  0
   -9.4977   17.0376   -3.6852 C   0  0  0  0  0  0  0  0  0  0  0  0
   -6.1684   16.8229  -10.7639 N   0  0  0  0  0  0  0  0  0  0  0  0
   -5.3035   17.1681  -11.1924 H   0  0  0  0  0  0  0  0  0  0  0  0
   -5.9357   15.7637   -9.8682 C   0  0  0  0  0  0  0  0  0  0  0  0
   -5.8455   15.9823   -8.4856 C   0  0  0  0  0  0  0  0  0  0  0  0
   -5.5956   14.9299   -7.5996 C   0  0  0  0  0  0  0  0  0  0  0  0
   -5.4071   13.6373   -8.0786 C   0  0  0  0  0  0  0  0  0  0  0  0
   -5.4779   13.3921   -9.4488 C   0  0  0  0  0  0  0  0  0  0  0  0
   -5.7462   14.4479  -10.3320 C   0  0  0  0  0  0  0  0  0  0  0  0
   -5.8335   14.0925  -12.0775 S   0  0  0  0  0  0  0  0  0  0  0  0
   -5.7028   15.3746  -12.7510 O   0  0  0  0  0  0  0  0  0  0  0  0
   -4.8967   13.0163  -12.3563 O   0  0  0  0  0  0  0  0  0  0  0  0
   -7.4941   13.4518  -12.3557 C   0  0  0  0  0  0  0  0  0  0  0  0
   -7.5700   11.9917  -11.9105 C   0  0  0  0  0  0  0  0  0  0  0  0
   -8.5627   14.2843  -11.6543 C   0  0  0  0  0  0  0  0  0  0  0  0
 28 29  1  0  0  0
 29 30  1  0  0  0
 29 27  1  0  0  0
 27 13  1  0  0  0
 13 14  2  0  0  0
 14 15  1  0  0  0
 15 20  1  0  0  0
 20 21  1  0  0  0
 21 22  1  0  0  0
 22 23  1  0  0  0
 23 24  1  0  0  0
 23 25  1  0  0  0
 25 26  1  0  0  0
 15 16  2  0  0  0
 16 17  1  0  0  0
 16 18  1  0  0  0
 18 19  2  0  0  0
 19 11  1  0  0  0
 11  1  1  0  0  0
  1  2  1  0  0  0
  2  3  2  0  0  0
  3 31  1  0  0  0
 31 33  1  0  0  0
 33 34  2  0  0  0
 34 35  1  0  0  0
 35 36  2  0  0  0
 36 37  1  0  0  0
 37 38  2  0  0  0
 38 39  1  0  0  0
 39 40  2  0  0  0
 39 41  2  0  0  0
 39 42  1  0  0  0
 42 43  1  0  0  0
 42 44  1  0  0  0
  3  4  1  0  0  0
  4  5  2  0  0  0
  5  6  1  0  0  0
  6  7  1  0  0  0
  7  8  2  0  0  0
  8  9  1  0  0  0
 19 13  1  0  0  0
 26 20  1  0  0  0
  9  1  2  0  0  0
 38 33  1  0  0  0
  8  4  1  0  0  0
 11 12  1  0  0  0
 31 32  1  0  0  0
  6 10  1  0  0  0
M  END
> <minimizedAffinity>
-9.56464

$$$$



 44 48  0  0  0  0  0  0  0  0999 V2000
   -8.6106   19.2447   -8.9309 C   0  0  0  0  0  0  0  0  0  0  0  0
   -7.9576   18.0551   -9.1586 N   0  0  0  0  0  0  0  0  0  0  0  0
   -7.4159   17.7558  -10.3729 C   0  0  0  0  0  0  0  0  0  0  0  0
   -7.5939   18.7816  -11.2975 C   0  0  0  0  0  0  0  0  0  0  0  0
   -7.1256   18.8959  -12.5807 C   0  0  0  0  0  0  0  0  0  0  0  0
   -7.5745   20.1170  -13.0088 N   0  0  0  0  0  0  0  0  0  0  0  0
   -8.2664   20.8058  -12.0828 N   0  0  0  0  0  0  0  0  0  0  0  0
   -8.2716   19.9919  -11.0216 C   0  0  0  0  0  0  0  0  0  0  0  0
   -8.8069   20.2479   -9.8157 N   0  0  0  0  0  0  0  0  0  0  0  0
   -7.4381   20.5501  -13.9172 H   0  0  0  0  0  0  0  0  0  0  0  0
   -9.0983   19.3550   -7.6319 N   0  0  0  0  0  0  0  0  0  0  0  0
   -9.1310   18.4495   -7.1827 H   0  0  0  0  0  0  0  0  0  0  0  0
   -9.5059   20.1260   -5.3750 C   0  0  0  0  0  0  0  0  0  0  0  0
   -9.7108   21.1614   -4.4622 C   0  0  0  0  0  0  0  0  0  0  0  0
   -9.6982   22.5174   -4.8569 C   0  0  0  0  0  0  0  0  0  0  0  0
   -9.5251   22.8173   -6.2233 C   0  0  0  0  0  0  0  0  0  0  0  0
   -9.5136   24.2273   -6.7562 C   0  0  0  0  0  0  0  0  0  0  0  0
   -9.3220   21.7676   -7.1394 C   0  0  0  0  0  0  0  0  0  0  0  0
   -9.2925   20.4268   -6.7388 C   0  0  0  0  0  0  0  0  0  0  0  0
   -9.9143   23.6105   -3.8146 C   0  0  0  0  0  0  0  0  0  0  0  0
  -11.0664   23.2580   -2.8565 C   0  0  0  0  0  0  0  0  0  0  0  0
  -10.8385   23.7940   -1.4379 C   0  0  0  0  0  0  0  0  0  0  0  0
  -10.2352   25.1280   -1.3867 N   0  0  0  0  0  0  0  0  0  0  0  0
  -11.1716   26.1696   -1.8078 C   0  0  0  0  0  0  0  0  0  0  0  0
   -8.9614   25.2073   -2.1217 C   0  0  0  0  0  0  0  0  0  0  0  0
   -8.6557   24.0026   -3.0261 C   0  0  0  0  0  0  0  0  0  0  0  0
   -9.4965   18.7866   -5.0847 O   0  0  0  0  0  0  0  0  0  0  0  0
   -9.3065   17.6606   -2.8917 C   0  0  0  0  0  0  0  0  0  0  0  0
  -10.2115   18.1863   -4.0021 C   0  0  0  0  0  0  0  0  0  0  0  0
  -11.3193   17.2279   -4.4291 C   0  0  0  0  0  0  0  0  0  0  0  0
   -6.6865   16.5728  -10.5040 N   0  0  0  0  0  0  0  0  0  0  0  0
   -5.9860   16.5255   -9.7570 H   0  0  0  0  0  0  0  0  0  0  0  0
   -7.0747   15.2982  -10.9547 C   0  0  0  0  0  0  0  0  0  0  0  0
   -7.5282   15.0936  -12.2661 C   0  0  0  0  0  0  0  0  0  0  0  0
   -7.9310   13.8288  -12.7054 C   0  0  0  0  0  0  0  0  0  0  0  0
   -7.9113   12.7432  -11.8353 C   0  0  0  0  0  0  0  0  0  0  0  0
   -7.4780   12.9191  -10.5224 C   0  0  0  0  0  0  0  0  0  0  0  0
   -7.0585   14.1860  -10.0915 C   0  0  0  0  0  0  0  0  0  0  0  0
   -6.5068   14.3691   -8.4055 S   0  0  0  0  0  0  0  0  0  0  0  0
   -6.0767   13.0460   -7.9823 O   0  0  0  0  0  0  0  0  0  0  0  0
   -5.5838   15.4914   -8.3623 O   0  0  0  0  0  0  0  0  0  0  0  0
   -7.9724   14.8359   -7.4676 C   0  0  0  0  0  0  0  0  0  0  0  0
   -7.6821   16.0848   -6.6358 C   0  0  0  0  0  0  0  0  0  0  0  0
   -9.1884   15.0558   -8.3619 C   0  0  0  0  0  0  0  0  0  0  0  0
 28 29  1  0  0  0
 29 30  1  0  0  0
 29 27  1  0  0  0
 27 13  1  0  0  0
 13 14  2  0  0  0
 14 15  1  0  0  0
 15 20  1  0  0  0
 20 21  1  0  0  0
 21 22  1  0  0  0
 22 23  1  0  0  0
 23 24  1  0  0  0
 23 25  1  0  0  0
 25 26  1  0  0  0
 15 16  2  0  0  0
 16 17  1  0  0  0
 16 18  1  0  0  0
 18 19  2  0  0  0
 19 11  1  0  0  0
 11  1  1  0  0  0
  1  2  1  0  0  0
  2  3  2  0  0  0
  3 31  1  0  0  0
 31 33  1  0  0  0
 33 34  2  0  0  0
 34 35  1  0  0  0
 35 36  2  0  0  0
 36 37  1  0  0  0
 37 38  2  0  0  0
 38 39  1  0  0  0
 39 40  2  0  0  0
 39 41  2  0  0  0
 39 42  1  0  0  0
 42 43  1  0  0  0
 42 44  1  0  0  0
  3  4  1  0  0  0
  4  5  2  0  0  0
  5  6  1  0  0  0
  6  7  1  0  0  0
  7  8  2  0  0  0
  8  9  1  0  0  0
 19 13  1  0  0  0
 26 20  1  0  0  0
  9  1  2  0  0  0
 38 33  1  0  0  0
  8  4  1  0  0  0
 11 12  1  0  0  0
 31 32  1  0  0  0
  6 10  1  0  0  0
M  END
> <minimizedAffinity>
-9.30765

$$$$



 44 48  0  0  0  0  0  0  0  0999 V2000
   -8.8506   16.6196   -6.7748 C   0  0  0  0  0  0  0  0  0  0  0  0
   -8.7034   16.5184   -8.1392 N   0  0  0  0  0  0  0  0  0  0  0  0
   -7.7812   15.6869   -8.7009 C   0  0  0  0  0  0  0  0  0  0  0  0
   -7.0582   14.9781   -7.7450 C   0  0  0  0  0  0  0  0  0  0  0  0
   -6.1163   13.9957   -7.9092 C   0  0  0  0  0  0  0  0  0  0  0  0
   -5.7631   13.6342   -6.6362 N   0  0  0  0  0  0  0  0  0  0  0  0
   -6.4339   14.2893   -5.6709 N   0  0  0  0  0  0  0  0  0  0  0  0
   -7.2421   15.1111   -6.3491 C   0  0  0  0  0  0  0  0  0  0  0  0
   -8.1519   15.9524   -5.8289 N   0  0  0  0  0  0  0  0  0  0  0  0
   -5.0787   12.9406   -6.3503 H   0  0  0  0  0  0  0  0  0  0  0  0
   -9.8378   17.5273   -6.4022 N   0  0  0  0  0  0  0  0  0  0  0  0
  -10.7473   17.0852   -6.3941 H   0  0  0  0  0  0  0  0  0  0  0  0
  -10.2187   18.8880   -4.4381 C   0  0  0  0  0  0  0  0  0  0  0  0
  -10.2327   20.1311   -3.8042 C   0  0  0  0  0  0  0  0  0  0  0  0
   -9.8545   21.3150   -4.4748 C   0  0  0  0  0  0  0  0  0  0  0  0
   -9.5056   21.2321   -5.8380 C   0  0  0  0  0  0  0  0  0  0  0  0
   -9.1042   22.4342   -6.6542 C   0  0  0  0  0  0  0  0  0  0  0  0
   -9.4966   19.9752   -6.4724 C   0  0  0  0  0  0  0  0  0  0  0  0
   -9.8309   18.7977   -5.7936 C   0  0  0  0  0  0  0  0  0  0  0  0
   -9.8753   22.6462   -3.7294 C   0  0  0  0  0  0  0  0  0  0  0  0
  -11.3039   23.0366   -3.3098 C   0  0  0  0  0  0  0  0  0  0  0  0
  -11.3393   23.8081   -1.9850 C   0  0  0  0  0  0  0  0  0  0  0  0
  -10.2461   24.7686   -1.8167 N   0  0  0  0  0  0  0  0  0  0  0  0
  -10.3998   25.9324   -2.6891 C   0  0  0  0  0  0  0  0  0  0  0  0
   -8.9165   24.1509   -1.9574 C   0  0  0  0  0  0  0  0  0  0  0  0
   -8.9188   22.7245   -2.5300 C   0  0  0  0  0  0  0  0  0  0  0  0
  -10.5634   17.6898   -3.8690 O   0  0  0  0  0  0  0  0  0  0  0  0
   -9.0877   16.8992   -2.0495 C   0  0  0  0  0  0  0  0  0  0  0  0
  -10.4664   17.3972   -2.4731 C   0  0  0  0  0  0  0  0  0  0  0  0
  -11.6350   16.5923   -1.9123 C   0  0  0  0  0  0  0  0  0  0  0  0
   -7.7528   15.5650  -10.0912 N   0  0  0  0  0  0  0  0  0  0  0  0
   -8.6451   15.1758  -10.4126 H   0  0  0  0  0  0  0  0  0  0  0  0
   -7.1321   16.3600  -11.0716 C   0  0  0  0  0  0  0  0  0  0  0  0
   -7.3292   17.7480  -11.1193 C   0  0  0  0  0  0  0  0  0  0  0  0
   -6.7255   18.5329  -12.1064 C   0  0  0  0  0  0  0  0  0  0  0  0
   -5.9287   17.9439  -13.0832 C   0  0  0  0  0  0  0  0  0  0  0  0
   -5.7255   16.5651  -13.0689 C   0  0  0  0  0  0  0  0  0  0  0  0
   -6.3190   15.7843  -12.0664 C   0  0  0  0  0  0  0  0  0  0  0  0
   -6.0311   14.0244  -12.0798 S   0  0  0  0  0  0  0  0  0  0  0  0
   -5.6384   13.6963  -13.4410 O   0  0  0  0  0  0  0  0  0  0  0  0
   -5.1516   13.7123  -10.9651 O   0  0  0  0  0  0  0  0  0  0  0  0
   -7.6314   13.2723  -11.7351 C   0  0  0  0  0  0  0  0  0  0  0  0
   -8.6106   13.5914  -12.8644 C   0  0  0  0  0  0  0  0  0  0  0  0
   -7.5306   11.7655  -11.5201 C   0  0  0  0  0  0  0  0  0  0  0  0
 28 29  1  0  0  0
 29 30  1  0  0  0
 29 27  1  0  0  0
 27 13  1  0  0  0
 13 14  2  0  0  0
 14 15  1  0  0  0
 15 20  1  0  0  0
 20 21  1  0  0  0
 21 22  1  0  0  0
 22 23  1  0  0  0
 23 24  1  0  0  0
 23 25  1  0  0  0
 25 26  1  0  0  0
 15 16  2  0  0  0
 16 17  1  0  0  0
 16 18  1  0  0  0
 18 19  2  0  0  0
 19 11  1  0  0  0
 11  1  1  0  0  0
  1  2  1  0  0  0
  2  3  2  0  0  0
  3 31  1  0  0  0
 31 33  1  0  0  0
 33 34  2  0  0  0
 34 35  1  0  0  0
 35 36  2  0  0  0
 36 37  1  0  0  0
 37 38  2  0  0  0
 38 39  1  0  0  0
 39 40  2  0  0  0
 39 41  2  0  0  0
 39 42  1  0  0  0
 42 43  1  0  0  0
 42 44  1  0  0  0
  3  4  1  0  0  0
  4  5  2  0  0  0
  5  6  1  0  0  0
  6  7  1  0  0  0
  7  8  2  0  0  0
  8  9  1  0  0  0
 19 13  1  0  0  0
 26 20  1  0  0  0
  9  1  2  0  0  0
 38 33  1  0  0  0
  8  4  1  0  0  0
 11 12  1  0  0  0
 31 32  1  0  0  0
  6 10  1  0  0  0
M  END
> <minimizedAffinity>
-9.17954

$$$$



 44 48  0  0  0  0  0  0  0  0999 V2000
   -8.8546   16.4406   -6.6978 C   0  0  0  0  0  0  0  0  0  0  0  0
   -8.7472   16.4031   -8.0691 N   0  0  0  0  0  0  0  0  0  0  0  0
   -7.8090   15.6372   -8.6940 C   0  0  0  0  0  0  0  0  0  0  0  0
   -7.0261   14.9213   -7.7921 C   0  0  0  0  0  0  0  0  0  0  0  0
   -6.0491   13.9890   -8.0271 C   0  0  0  0  0  0  0  0  0  0  0  0
   -5.6400   13.5904   -6.7822 N   0  0  0  0  0  0  0  0  0  0  0  0
   -6.3065   14.1743   -5.7696 N   0  0  0  0  0  0  0  0  0  0  0  0
   -7.1704   14.9876   -6.3867 C   0  0  0  0  0  0  0  0  0  0  0  0
   -8.0980   15.7657   -5.8033 N   0  0  0  0  0  0  0  0  0  0  0  0
   -4.9178   12.9161   -6.5475 H   0  0  0  0  0  0  0  0  0  0  0  0
   -9.8670   17.2877   -6.2565 N   0  0  0  0  0  0  0  0  0  0  0  0
  -10.6985   17.1779   -6.8214 H   0  0  0  0  0  0  0  0  0  0  0  0
   -9.5273   19.3309   -5.0057 C   0  0  0  0  0  0  0  0  0  0  0  0
   -9.7158   20.0978   -3.8553 C   0  0  0  0  0  0  0  0  0  0  0  0
  -10.4668   19.6237   -2.7573 C   0  0  0  0  0  0  0  0  0  0  0  0
  -10.9911   18.3166   -2.8167 C   0  0  0  0  0  0  0  0  0  0  0  0
  -11.7911   17.7043   -1.6955 C   0  0  0  0  0  0  0  0  0  0  0  0
  -10.7946   17.5470   -3.9793 C   0  0  0  0  0  0  0  0  0  0  0  0
  -10.0860   18.0356   -5.0830 C   0  0  0  0  0  0  0  0  0  0  0  0
  -10.6528   20.5097   -1.5291 C   0  0  0  0  0  0  0  0  0  0  0  0
   -9.4662   20.3842   -0.5568 C   0  0  0  0  0  0  0  0  0  0  0  0
   -9.1699   21.6937    0.1843 C   0  0  0  0  0  0  0  0  0  0  0  0
  -10.3630   22.4411    0.5890 N   0  0  0  0  0  0  0  0  0  0  0  0
  -11.0730   21.7872    1.6878 C   0  0  0  0  0  0  0  0  0  0  0  0
  -11.2595   22.7409   -0.5404 C   0  0  0  0  0  0  0  0  0  0  0  0
  -10.9427   21.9856   -1.8411 C   0  0  0  0  0  0  0  0  0  0  0  0
   -8.8207   19.7076   -6.1179 O   0  0  0  0  0  0  0  0  0  0  0  0
   -8.9342   20.0799   -8.5597 C   0  0  0  0  0  0  0  0  0  0  0  0
   -9.3330   20.5407   -7.1607 C   0  0  0  0  0  0  0  0  0  0  0  0
   -9.1715   22.0374   -6.9122 C   0  0  0  0  0  0  0  0  0  0  0  0
   -7.8203   15.5750  -10.0885 N   0  0  0  0  0  0  0  0  0  0  0  0
   -8.7397   15.2479  -10.4027 H   0  0  0  0  0  0  0  0  0  0  0  0
   -7.1811   16.3783  -11.0500 C   0  0  0  0  0  0  0  0  0  0  0  0
   -7.3750   17.7670  -11.0879 C   0  0  0  0  0  0  0  0  0  0  0  0
   -6.7527   18.5602  -12.0566 C   0  0  0  0  0  0  0  0  0  0  0  0
   -5.9397   17.9792  -13.0247 C   0  0  0  0  0  0  0  0  0  0  0  0
   -5.7390   16.6000  -13.0201 C   0  0  0  0  0  0  0  0  0  0  0  0
   -6.3514   15.8107  -12.0359 C   0  0  0  0  0  0  0  0  0  0  0  0
   -6.0661   14.0504  -12.0611 S   0  0  0  0  0  0  0  0  0  0  0  0
   -5.6779   13.7304  -13.4254 O   0  0  0  0  0  0  0  0  0  0  0  0
   -5.1839   13.7301  -10.9509 O   0  0  0  0  0  0  0  0  0  0  0  0
   -7.6666   13.2986  -11.7164 C   0  0  0  0  0  0  0  0  0  0  0  0
   -8.6440   13.6131  -12.8485 C   0  0  0  0  0  0  0  0  0  0  0  0
   -7.5652   11.7926  -11.4961 C   0  0  0  0  0  0  0  0  0  0  0  0
 28 29  1  0  0  0
 29 30  1  0  0  0
 29 27  1  0  0  0
 27 13  1  0  0  0
 13 14  2  0  0  0
 14 15  1  0  0  0
 15 20  1  0  0  0
 20 21  1  0  0  0
 21 22  1  0  0  0
 22 23  1  0  0  0
 23 24  1  0  0  0
 23 25  1  0  0  0
 25 26  1  0  0  0
 15 16  2  0  0  0
 16 17  1  0  0  0
 16 18  1  0  0  0
 18 19  2  0  0  0
 19 11  1  0  0  0
 11  1  1  0  0  0
  1  2  1  0  0  0
  2  3  2  0  0  0
  3 31  1  0  0  0
 31 33  1  0  0  0
 33 34  2  0  0  0
 34 35  1  0  0  0
 35 36  2  0  0  0
 36 37  1  0  0  0
 37 38  2  0  0  0
 38 39  1  0  0  0
 39 40  2  0  0  0
 39 41  2  0  0  0
 39 42  1  0  0  0
 42 43  1  0  0  0
 42 44  1  0  0  0
  3  4  1  0  0  0
  4  5  2  0  0  0
  5  6  1  0  0  0
  6  7  1  0  0  0
  7  8  2  0  0  0
  8  9  1  0  0  0
 19 13  1  0  0  0
 26 20  1  0  0  0
  9  1  2  0  0  0
 38 33  1  0  0  0
  8  4  1  0  0  0
 11 12  1  0  0  0
 31 32  1  0  0  0
  6 10  1  0  0  0
M  END
> <minimizedAffinity>
-8.94082

$$$$



 44 48  0  0  0  0  0  0  0  0999 V2000
   -9.7924   19.4708   -5.3732 C   0  0  0  0  0  0  0  0  0  0  0  0
   -8.8771   19.3515   -6.3937 N   0  0  0  0  0  0  0  0  0  0  0  0
   -8.4360   18.1353   -6.8224 C   0  0  0  0  0  0  0  0  0  0  0  0
   -9.0273   17.0841   -6.1266 C   0  0  0  0  0  0  0  0  0  0  0  0
   -8.9125   15.7317   -6.3182 C   0  0  0  0  0  0  0  0  0  0  0  0
   -9.7331   15.1742   -5.3740 N   0  0  0  0  0  0  0  0  0  0  0  0
  -10.3896   16.0710   -4.6152 N   0  0  0  0  0  0  0  0  0  0  0  0
   -9.9668   17.2505   -5.0826 C   0  0  0  0  0  0  0  0  0  0  0  0
  -10.3689   18.4665   -4.6753 N   0  0  0  0  0  0  0  0  0  0  0  0
   -9.9025   14.1888   -5.1959 H   0  0  0  0  0  0  0  0  0  0  0  0
  -10.1067   20.7945   -5.0793 N   0  0  0  0  0  0  0  0  0  0  0  0
  -10.7666   21.1642   -5.7505 H   0  0  0  0  0  0  0  0  0  0  0  0
  -10.1742   23.0065   -4.1011 C   0  0  0  0  0  0  0  0  0  0  0  0
  -10.0072   23.8585   -3.0087 C   0  0  0  0  0  0  0  0  0  0  0  0
   -9.6178   23.3768   -1.7395 C   0  0  0  0  0  0  0  0  0  0  0  0
   -9.3419   22.0016   -1.5990 C   0  0  0  0  0  0  0  0  0  0  0  0
   -8.9019   21.3845   -0.2960 C   0  0  0  0  0  0  0  0  0  0  0  0
   -9.5093   21.1481   -2.7062 C   0  0  0  0  0  0  0  0  0  0  0  0
   -9.9366   21.6219   -3.9520 C   0  0  0  0  0  0  0  0  0  0  0  0
   -9.4632   24.3511   -0.5755 C   0  0  0  0  0  0  0  0  0  0  0  0
   -8.9780   25.7312   -1.0544 C   0  0  0  0  0  0  0  0  0  0  0  0
   -9.5422   26.8802   -0.2099 C   0  0  0  0  0  0  0  0  0  0  0  0
   -9.6150   26.5950    1.2251 N   0  0  0  0  0  0  0  0  0  0  0  0
   -8.2913   26.5685    1.8466 C   0  0  0  0  0  0  0  0  0  0  0  0
  -10.3859   25.3769    1.5269 C   0  0  0  0  0  0  0  0  0  0  0  0
  -10.7094   24.4936    0.3113 C   0  0  0  0  0  0  0  0  0  0  0  0
  -10.5522   23.3810   -5.3641 O   0  0  0  0  0  0  0  0  0  0  0  0
   -8.2889   23.8205   -6.2572 C   0  0  0  0  0  0  0  0  0  0  0  0
   -9.7675   24.1969   -6.2372 C   0  0  0  0  0  0  0  0  0  0  0  0
  -10.0429   25.6933   -6.1230 C   0  0  0  0  0  0  0  0  0  0  0  0
   -7.5803   18.0871   -7.9242 N   0  0  0  0  0  0  0  0  0  0  0  0
   -7.1040   17.1795   -7.9403 H   0  0  0  0  0  0  0  0  0  0  0  0
   -7.7006   18.6507   -9.2073 C   0  0  0  0  0  0  0  0  0  0  0  0
   -8.0830   19.9885   -9.3849 C   0  0  0  0  0  0  0  0  0  0  0  0
   -8.2196   20.5405  -10.6623 C   0  0  0  0  0  0  0  0  0  0  0  0
   -7.9992   19.7599  -11.7927 C   0  0  0  0  0  0  0  0  0  0  0  0
   -7.6308   18.4236  -11.6473 C   0  0  0  0  0  0  0  0  0  0  0  0
   -7.4780   17.8792  -10.3639 C   0  0  0  0  0  0  0  0  0  0  0  0
   -7.0012   16.1668  -10.2198 S   0  0  0  0  0  0  0  0  0  0  0  0
   -5.6944   16.1706   -9.5820 O   0  0  0  0  0  0  0  0  0  0  0  0
   -8.1119   15.4484   -9.6169 O   0  0  0  0  0  0  0  0  0  0  0  0
   -6.8251   15.5724  -11.9113 C   0  0  0  0  0  0  0  0  0  0  0  0
   -5.4590   14.9109  -12.0910 C   0  0  0  0  0  0  0  0  0  0  0  0
   -7.9432   14.6143  -12.3094 C   0  0  0  0  0  0  0  0  0  0  0  0
 28 29  1  0  0  0
 29 30  1  0  0  0
 29 27  1  0  0  0
 27 13  1  0  0  0
 13 14  2  0  0  0
 14 15  1  0  0  0
 15 20  1  0  0  0
 20 21  1  0  0  0
 21 22  1  0  0  0
 22 23  1  0  0  0
 23 24  1  0  0  0
 23 25  1  0  0  0
 25 26  1  0  0  0
 15 16  2  0  0  0
 16 17  1  0  0  0
 16 18  1  0  0  0
 18 19  2  0  0  0
 19 11  1  0  0  0
 11  1  1  0  0  0
  1  2  1  0  0  0
  2  3  2  0  0  0
  3 31  1  0  0  0
 31 33  1  0  0  0
 33 34  2  0  0  0
 34 35  1  0  0  0
 35 36  2  0  0  0
 36 37  1  0  0  0
 37 38  2  0  0  0
 38 39  1  0  0  0
 39 40  2  0  0  0
 39 41  2  0  0  0
 39 42  1  0  0  0
 42 43  1  0  0  0
 42 44  1  0  0  0
  3  4  1  0  0  0
  4  5  2  0  0  0
  5  6  1  0  0  0
  6  7  1  0  0  0
  7  8  2  0  0  0
  8  9  1  0  0  0
 19 13  1  0  0  0
 26 20  1  0  0  0
  9  1  2  0  0  0
 38 33  1  0  0  0
  8  4  1  0  0  0
 11 12  1  0  0  0
 31 32  1  0  0  0
  6 10  1  0  0  0
M  END
> <minimizedAffinity>
-8.73331

$$$$



 44 48  0  0  0  0  0  0  0  0999 V2000
   -9.4416   19.9531   -7.3392 C   0  0  0  0  0  0  0  0  0  0  0  0
   -9.2252   18.5975   -7.4326 N   0  0  0  0  0  0  0  0  0  0  0  0
   -8.7112   18.0296   -8.5599 C   0  0  0  0  0  0  0  0  0  0  0  0
   -8.4346   18.9723   -9.5466 C   0  0  0  0  0  0  0  0  0  0  0  0
   -7.8389   18.8109  -10.7706 C   0  0  0  0  0  0  0  0  0  0  0  0
   -7.7931   20.0709  -11.3056 N   0  0  0  0  0  0  0  0  0  0  0  0
   -8.2849   21.0301  -10.5002 N   0  0  0  0  0  0  0  0  0  0  0  0
   -8.6715   20.3598   -9.4094 C   0  0  0  0  0  0  0  0  0  0  0  0
   -9.1937   20.8843   -8.2876 N   0  0  0  0  0  0  0  0  0  0  0  0
   -7.4310   20.3528  -12.2116 H   0  0  0  0  0  0  0  0  0  0  0  0
   -9.9788   20.3328   -6.1126 N   0  0  0  0  0  0  0  0  0  0  0  0
  -10.9804   20.4545   -6.1816 H   0  0  0  0  0  0  0  0  0  0  0  0
   -9.4140   21.5562   -4.1029 C   0  0  0  0  0  0  0  0  0  0  0  0
   -8.9449   21.5860   -2.7890 C   0  0  0  0  0  0  0  0  0  0  0  0
   -8.5710   20.4093   -2.1033 C   0  0  0  0  0  0  0  0  0  0  0  0
   -8.6281   19.1824   -2.7950 C   0  0  0  0  0  0  0  0  0  0  0  0
   -8.2355   17.8699   -2.1662 C   0  0  0  0  0  0  0  0  0  0  0  0
   -9.0993   19.1598   -4.1216 C   0  0  0  0  0  0  0  0  0  0  0  0
   -9.5095   20.3223   -4.7844 C   0  0  0  0  0  0  0  0  0  0  0  0
   -8.0775   20.4980   -0.6623 C   0  0  0  0  0  0  0  0  0  0  0  0
   -6.8508   21.4200   -0.5409 C   0  0  0  0  0  0  0  0  0  0  0  0
   -6.8065   22.1694    0.7963 C   0  0  0  0  0  0  0  0  0  0  0  0
   -7.2311   21.3718    1.9494 N   0  0  0  0  0  0  0  0  0  0  0  0
   -6.2463   20.3493    2.3010 C   0  0  0  0  0  0  0  0  0  0  0  0
   -8.5783   20.8002    1.7834 C   0  0  0  0  0  0  0  0  0  0  0  0
   -9.1534   20.8916    0.3610 C   0  0  0  0  0  0  0  0  0  0  0  0
   -9.8025   22.6415   -4.8441 O   0  0  0  0  0  0  0  0  0  0  0  0
   -9.7764   24.9434   -3.9420 C   0  0  0  0  0  0  0  0  0  0  0  0
   -9.1289   23.9024   -4.8505 C   0  0  0  0  0  0  0  0  0  0  0  0
   -8.7538   24.4128   -6.2387 C   0  0  0  0  0  0  0  0  0  0  0  0
   -8.4301   16.6624   -8.5488 N   0  0  0  0  0  0  0  0  0  0  0  0
   -8.9843   16.1995   -9.2766 H   0  0  0  0  0  0  0  0  0  0  0  0
   -7.2394   15.9706   -8.2623 C   0  0  0  0  0  0  0  0  0  0  0  0
   -6.2600   16.5191   -7.4212 C   0  0  0  0  0  0  0  0  0  0  0  0
   -5.0692   15.8369   -7.1533 C   0  0  0  0  0  0  0  0  0  0  0  0
   -4.8206   14.5998   -7.7393 C   0  0  0  0  0  0  0  0  0  0  0  0
   -5.7698   14.0359   -8.5898 C   0  0  0  0  0  0  0  0  0  0  0  0
   -6.9702   14.7159   -8.8418 C   0  0  0  0  0  0  0  0  0  0  0  0
   -8.1614   13.9591   -9.9320 S   0  0  0  0  0  0  0  0  0  0  0  0
   -7.7145   12.5880  -10.1185 O   0  0  0  0  0  0  0  0  0  0  0  0
   -9.4855   14.2352   -9.3992 O   0  0  0  0  0  0  0  0  0  0  0  0
   -8.0113   14.8413  -11.4956 C   0  0  0  0  0  0  0  0  0  0  0  0
   -6.5373   15.0925  -11.8121 C   0  0  0  0  0  0  0  0  0  0  0  0
   -8.6904   14.1043  -12.6456 C   0  0  0  0  0  0  0  0  0  0  0  0
 28 29  1  0  0  0
 29 30  1  0  0  0
 29 27  1  0  0  0
 27 13  1  0  0  0
 13 14  2  0  0  0
 14 15  1  0  0  0
 15 20  1  0  0  0
 20 21  1  0  0  0
 21 22  1  0  0  0
 22 23  1  0  0  0
 23 24  1  0  0  0
 23 25  1  0  0  0
 25 26  1  0  0  0
 15 16  2  0  0  0
 16 17  1  0  0  0
 16 18  1  0  0  0
 18 19  2  0  0  0
 19 11  1  0  0  0
 11  1  1  0  0  0
  1  2  1  0  0  0
  2  3  2  0  0  0
  3 31  1  0  0  0
 31 33  1  0  0  0
 33 34  2  0  0  0
 34 35  1  0  0  0
 35 36  2  0  0  0
 36 37  1  0  0  0
 37 38  2  0  0  0
 38 39  1  0  0  0
 39 40  2  0  0  0
 39 41  2  0  0  0
 39 42  1  0  0  0
 42 43  1  0  0  0
 42 44  1  0  0  0
  3  4  1  0  0  0
  4  5  2  0  0  0
  5  6  1  0  0  0
  6  7  1  0  0  0
  7  8  2  0  0  0
  8  9  1  0  0  0
 19 13  1  0  0  0
 26 20  1  0  0  0
  9  1  2  0  0  0
 38 33  1  0  0  0
  8  4  1  0  0  0
 11 12  1  0  0  0
 31 32  1  0  0  0
  6 10  1  0  0  0
M  END
> <minimizedAffinity>
-8.70844

$$$$



 44 48  0  0  0  0  0  0  0  0999 V2000
   -9.8108   21.7282   -6.2572 C   0  0  0  0  0  0  0  0  0  0  0  0
   -9.5871   21.4807   -4.9222 N   0  0  0  0  0  0  0  0  0  0  0  0
   -9.3472   22.4886   -4.0368 C   0  0  0  0  0  0  0  0  0  0  0  0
   -9.3766   23.7418   -4.6430 C   0  0  0  0  0  0  0  0  0  0  0  0
   -9.2699   24.9887   -4.0836 C   0  0  0  0  0  0  0  0  0  0  0  0
   -9.3984   25.8558   -5.1361 N   0  0  0  0  0  0  0  0  0  0  0  0
   -9.6129   25.2562   -6.3215 N   0  0  0  0  0  0  0  0  0  0  0  0
   -9.6118   23.9529   -6.0215 C   0  0  0  0  0  0  0  0  0  0  0  0
   -9.8306   22.9334   -6.8695 N   0  0  0  0  0  0  0  0  0  0  0  0
   -9.3605   26.8705   -5.1185 H   0  0  0  0  0  0  0  0  0  0  0  0
  -10.0266   20.5676   -6.9946 N   0  0  0  0  0  0  0  0  0  0  0  0
  -11.0142   20.3584   -7.0538 H   0  0  0  0  0  0  0  0  0  0  0  0
   -8.6216   18.6330   -7.3657 C   0  0  0  0  0  0  0  0  0  0  0  0
   -7.8284   17.8493   -8.2046 C   0  0  0  0  0  0  0  0  0  0  0  0
   -7.6318   18.1755   -9.5645 C   0  0  0  0  0  0  0  0  0  0  0  0
   -8.2162   19.3576  -10.0626 C   0  0  0  0  0  0  0  0  0  0  0  0
   -8.0559   19.8102  -11.4915 C   0  0  0  0  0  0  0  0  0  0  0  0
   -9.0128   20.1454   -9.2099 C   0  0  0  0  0  0  0  0  0  0  0  0
   -9.2407   19.7969   -7.8736 C   0  0  0  0  0  0  0  0  0  0  0  0
   -6.7652   17.2757  -10.4406 C   0  0  0  0  0  0  0  0  0  0  0  0
   -7.5744   16.1006  -11.0183 C   0  0  0  0  0  0  0  0  0  0  0  0
   -7.0931   15.6824  -12.4130 C   0  0  0  0  0  0  0  0  0  0  0  0
   -5.6385   15.7147  -12.5841 N   0  0  0  0  0  0  0  0  0  0  0  0
   -4.9763   14.6363  -11.8511 C   0  0  0  0  0  0  0  0  0  0  0  0
   -5.0555   17.0298  -12.2682 C   0  0  0  0  0  0  0  0  0  0  0  0
   -6.0033   18.0078  -11.5556 C   0  0  0  0  0  0  0  0  0  0  0  0
   -8.8724   18.3937   -6.0397 O   0  0  0  0  0  0  0  0  0  0  0  0
  -10.8297   17.9705   -4.5894 C   0  0  0  0  0  0  0  0  0  0  0  0
   -9.7871   17.4093   -5.5520 C   0  0  0  0  0  0  0  0  0  0  0  0
   -9.1334   16.1083   -5.0960 C   0  0  0  0  0  0  0  0  0  0  0  0
   -9.2235   22.1712   -2.6831 N   0  0  0  0  0  0  0  0  0  0  0  0
   -9.1924   23.0378   -2.1363 H   0  0  0  0  0  0  0  0  0  0  0  0
   -9.7320   21.0892   -1.9420 C   0  0  0  0  0  0  0  0  0  0  0  0
   -9.0714   19.8523   -1.9077 C   0  0  0  0  0  0  0  0  0  0  0  0
   -9.5893   18.7731   -1.1850 C   0  0  0  0  0  0  0  0  0  0  0  0
  -10.7929   18.8997   -0.4984 C   0  0  0  0  0  0  0  0  0  0  0  0
  -11.4783   20.1129   -0.5253 C   0  0  0  0  0  0  0  0  0  0  0  0
  -10.9460   21.1977   -1.2371 C   0  0  0  0  0  0  0  0  0  0  0  0
  -11.8508   22.7345   -1.2433 S   0  0  0  0  0  0  0  0  0  0  0  0
  -10.9219   23.7444   -0.7618 O   0  0  0  0  0  0  0  0  0  0  0  0
  -12.4767   22.8731   -2.5481 O   0  0  0  0  0  0  0  0  0  0  0  0
  -13.1661   22.5234   -0.0305 C   0  0  0  0  0  0  0  0  0  0  0  0
  -12.9242   23.4441    1.1652 C   0  0  0  0  0  0  0  0  0  0  0  0
  -14.5493   22.7670   -0.6258 C   0  0  0  0  0  0  0  0  0  0  0  0
 28 29  1  0  0  0
 29 30  1  0  0  0
 29 27  1  0  0  0
 27 13  1  0  0  0
 13 14  2  0  0  0
 14 15  1  0  0  0
 15 20  1  0  0  0
 20 21  1  0  0  0
 21 22  1  0  0  0
 22 23  1  0  0  0
 23 24  1  0  0  0
 23 25  1  0  0  0
 25 26  1  0  0  0
 15 16  2  0  0  0
 16 17  1  0  0  0
 16 18  1  0  0  0
 18 19  2  0  0  0
 19 11  1  0  0  0
 11  1  1  0  0  0
  1  2  1  0  0  0
  2  3  2  0  0  0
  3 31  1  0  0  0
 31 33  1  0  0  0
 33 34  2  0  0  0
 34 35  1  0  0  0
 35 36  2  0  0  0
 36 37  1  0  0  0
 37 38  2  0  0  0
 38 39  1  0  0  0
 39 40  2  0  0  0
 39 41  2  0  0  0
 39 42  1  0  0  0
 42 43  1  0  0  0
 42 44  1  0  0  0
  3  4  1  0  0  0
  4  5  2  0  0  0
  5  6  1  0  0  0
  6  7  1  0  0  0
  7  8  2  0  0  0
  8  9  1  0  0  0
 19 13  1  0  0  0
 26 20  1  0  0  0
  9  1  2  0  0  0
 38 33  1  0  0  0
  8  4  1  0  0  0
 11 12  1  0  0  0
 31 32  1  0  0  0
  6 10  1  0  0  0
M  END
> <minimizedAffinity>
-8.65336

$$$$



 44 48  0  0  0  0  0  0  0  0999 V2000
   -9.8257   21.4793   -6.2649 C   0  0  0  0  0  0  0  0  0  0  0  0
  -10.0051   21.2167   -4.9261 N   0  0  0  0  0  0  0  0  0  0  0  0
   -9.8233   22.1773   -3.9766 C   0  0  0  0  0  0  0  0  0  0  0  0
   -9.4651   23.4043   -4.5290 C   0  0  0  0  0  0  0  0  0  0  0  0
   -9.2813   24.6190   -3.9210 C   0  0  0  0  0  0  0  0  0  0  0  0
   -8.9719   25.4775   -4.9424 N   0  0  0  0  0  0  0  0  0  0  0  0
   -8.9773   24.9085   -6.1618 N   0  0  0  0  0  0  0  0  0  0  0  0
   -9.2920   23.6325   -5.9140 C   0  0  0  0  0  0  0  0  0  0  0  0
   -9.4656   22.6572   -6.8223 N   0  0  0  0  0  0  0  0  0  0  0  0
   -8.7552   26.4679   -4.8828 H   0  0  0  0  0  0  0  0  0  0  0  0
  -10.0510   20.3666   -7.0701 N   0  0  0  0  0  0  0  0  0  0  0  0
  -11.0420   20.2087   -7.1952 H   0  0  0  0  0  0  0  0  0  0  0  0
   -8.6848   18.4051   -7.4449 C   0  0  0  0  0  0  0  0  0  0  0  0
   -7.8795   17.6249   -8.2756 C   0  0  0  0  0  0  0  0  0  0  0  0
   -7.6192   17.9860   -9.6159 C   0  0  0  0  0  0  0  0  0  0  0  0
   -8.1508   19.1985  -10.0999 C   0  0  0  0  0  0  0  0  0  0  0  0
   -7.9206   19.6889  -11.5065 C   0  0  0  0  0  0  0  0  0  0  0  0
   -8.9599   19.9826   -9.2554 C   0  0  0  0  0  0  0  0  0  0  0  0
   -9.2511   19.6007   -7.9407 C   0  0  0  0  0  0  0  0  0  0  0  0
   -6.7423   17.0888  -10.4843 C   0  0  0  0  0  0  0  0  0  0  0  0
   -7.5502   15.9299  -11.0955 C   0  0  0  0  0  0  0  0  0  0  0  0
   -7.0420   15.5249  -12.4845 C   0  0  0  0  0  0  0  0  0  0  0  0
   -5.5837   15.5444  -12.6228 N   0  0  0  0  0  0  0  0  0  0  0  0
   -4.9490   14.4496  -11.8896 C   0  0  0  0  0  0  0  0  0  0  0  0
   -4.9947   16.8491  -12.2765 C   0  0  0  0  0  0  0  0  0  0  0  0
   -5.9483   17.8275  -11.5722 C   0  0  0  0  0  0  0  0  0  0  0  0
   -8.9954   18.1334   -6.1380 O   0  0  0  0  0  0  0  0  0  0  0  0
  -10.9995   17.4833   -4.8440 C   0  0  0  0  0  0  0  0  0  0  0  0
   -9.8206   17.0476   -5.7094 C   0  0  0  0  0  0  0  0  0  0  0  0
   -9.0532   15.8398   -5.1800 C   0  0  0  0  0  0  0  0  0  0  0  0
  -10.1150   21.8648   -2.6478 N   0  0  0  0  0  0  0  0  0  0  0  0
  -11.0437   21.4331   -2.6003 H   0  0  0  0  0  0  0  0  0  0  0  0
   -9.2785   21.4512   -1.5953 C   0  0  0  0  0  0  0  0  0  0  0  0
   -7.9596   21.9155   -1.4845 C   0  0  0  0  0  0  0  0  0  0  0  0
   -7.1247   21.4880   -0.4476 C   0  0  0  0  0  0  0  0  0  0  0  0
   -7.5830   20.5676    0.4898 C   0  0  0  0  0  0  0  0  0  0  0  0
   -8.8849   20.0786    0.3974 C   0  0  0  0  0  0  0  0  0  0  0  0
   -9.7241   20.5237   -0.6342 C   0  0  0  0  0  0  0  0  0  0  0  0
  -11.3845   19.8779   -0.7155 S   0  0  0  0  0  0  0  0  0  0  0  0
  -12.2648   21.0211   -0.5344 O   0  0  0  0  0  0  0  0  0  0  0  0
  -11.4811   19.0574   -1.9118 O   0  0  0  0  0  0  0  0  0  0  0  0
  -11.5456   18.7841    0.7068 C   0  0  0  0  0  0  0  0  0  0  0  0
  -12.8817   19.0328    1.4061 C   0  0  0  0  0  0  0  0  0  0  0  0
  -11.4025   17.3135    0.3275 C   0  0  0  0  0  0  0  0  0  0  0  0
 28 29  1  0  0  0
 29 30  1  0  0  0
 29 27  1  0  0  0
 27 13  1  0  0  0
 13 14  2  0  0  0
 14 15  1  0  0  0
 15 20  1  0  0  0
 20 21  1  0  0  0
 21 22  1  0  0  0
 22 23  1  0  0  0
 23 24  1  0  0  0
 23 25  1  0  0  0
 25 26  1  0  0  0
 15 16  2  0  0  0
 16 17  1  0  0  0
 16 18  1  0  0  0
 18 19  2  0  0  0
 19 11  1  0  0  0
 11  1  1  0  0  0
  1  2  1  0  0  0
  2  3  2  0  0  0
  3 31  1  0  0  0
 31 33  1  0  0  0
 33 34  2  0  0  0
 34 35  1  0  0  0
 35 36  2  0  0  0
 36 37  1  0  0  0
 37 38  2  0  0  0
 38 39  1  0  0  0
 39 40  2  0  0  0
 39 41  2  0  0  0
 39 42  1  0  0  0
 42 43  1  0  0  0
 42 44  1  0  0  0
  3  4  1  0  0  0
  4  5  2  0  0  0
  5  6  1  0  0  0
  6  7  1  0  0  0
  7  8  2  0  0  0
  8  9  1  0  0  0
 19 13  1  0  0  0
 26 20  1  0  0  0
  9  1  2  0  0  0
 38 33  1  0  0  0
  8  4  1  0  0  0
 11 12  1  0  0  0
 31 32  1  0  0  0
  6 10  1  0  0  0
M  END
> <minimizedAffinity>
-8.61794

$$$$
