Molecule_0


 44 48  0  0  0  0  0  0  0  0999 V2000
   -8.4012   19.6408  -10.3293 C   0  0  0  0  0  0  0  0  0  0  0  0
   -7.5298   18.6173  -10.0361 N   0  0  0  0  0  0  0  0  0  0  0  0
   -6.7954   18.0144  -11.0084 C   0  0  0  0  0  0  0  0  0  0  0  0
   -6.9912   18.5882  -12.2567 C   0  0  0  0  0  0  0  0  0  0  0  0
   -6.3978   18.2760  -13.4508 C   0  0  0  0  0  0  0  0  0  0  0  0
   -6.9417   19.1550  -14.3430 N   0  0  0  0  0  0  0  0  0  0  0  0
   -7.8453   20.0000  -13.8057 N   0  0  0  0  0  0  0  0  0  0  0  0
   -7.8665   19.6644  -12.5124 C   0  0  0  0  0  0  0  0  0  0  0  0
   -8.6127   20.2199  -11.5365 N   0  0  0  0  0  0  0  0  0  0  0  0
   -6.7429   19.2349  -15.3352 H   0  0  0  0  0  0  0  0  0  0  0  0
   -9.1557   20.0303   -9.2194 N   0  0  0  0  0  0  0  0  0  0  0  0
   -9.2755   21.0366   -9.2565 H   0  0  0  0  0  0  0  0  0  0  0  0
   -9.2271   20.4220   -6.8373 C   0  0  0  0  0  0  0  0  0  0  0  0
   -9.2159   19.9663   -5.5199 C   0  0  0  0  0  0  0  0  0  0  0  0
   -9.2572   18.5890   -5.2141 C   0  0  0  0  0  0  0  0  0  0  0  0
   -9.3074   17.6721   -6.2873 C   0  0  0  0  0  0  0  0  0  0  0  0
   -9.3391   16.1741   -6.1329 C   0  0  0  0  0  0  0  0  0  0  0  0
   -9.2581   18.1588   -7.6158 C   0  0  0  0  0  0  0  0  0  0  0  0
   -9.2046   19.5222   -7.9110 C   0  0  0  0  0  0  0  0  0  0  0  0
   -9.2695   18.2242   -3.7317 C   0  0  0  0  0  0  0  0  0  0  0  0
  -10.6697   18.0876   -3.1004 C   0  0  0  0  0  0  0  0  0  0  0  0
  -10.7122   18.5922   -1.6539 C   0  0  0  0  0  0  0  0  0  0  0  0
   -9.5377   18.1065   -0.9335 N   0  0  0  0  0  0  0  0  0  0  0  0
   -9.6687   18.3009    0.5066 C   0  0  0  0  0  0  0  0  0  0  0  0
   -8.2897   18.7008   -1.4360 C   0  0  0  0  0  0  0  0  0  0  0  0
   -8.3408   19.1269   -2.9115 C   0  0  0  0  0  0  0  0  0  0  0  0
   -9.1309   21.7606   -7.1255 O   0  0  0  0  0  0  0  0  0  0  0  0
   -8.4467   23.9528   -6.0865 C   0  0  0  0  0  0  0  0  0  0  0  0
   -9.3062   22.6877   -6.0401 C   0  0  0  0  0  0  0  0  0  0  0  0
  -10.7859   22.9992   -5.8221 C   0  0  0  0  0  0  0  0  0  0  0  0
   -5.9533   16.9450  -10.6788 N   0  0  0  0  0  0  0  0  0  0  0  0
   -4.9917   17.2705  -10.8255 H   0  0  0  0  0  0  0  0  0  0  0  0
   -5.9928   16.1673   -9.4886 C   0  0  0  0  0  0  0  0  0  0  0  0
   -5.8221   16.7588   -8.2262 C   0  0  0  0  0  0  0  0  0  0  0  0
   -5.8529   15.9973   -7.0539 C   0  0  0  0  0  0  0  0  0  0  0  0
   -6.0623   14.6256   -7.1183 C   0  0  0  0  0  0  0  0  0  0  0  0
   -6.2537   14.0126   -8.3550 C   0  0  0  0  0  0  0  0  0  0  0  0
   -6.2346   14.7744   -9.5336 C   0  0  0  0  0  0  0  0  0  0  0  0
   -6.4840   14.0002  -11.1270 S   0  0  0  0  0  0  0  0  0  0  0  0
   -5.1974   14.1026  -11.8049 O   0  0  0  0  0  0  0  0  0  0  0  0
   -7.6735   14.6034  -11.6976 O   0  0  0  0  0  0  0  0  0  0  0  0
   -6.8098   12.2478  -10.8755 C   0  0  0  0  0  0  0  0  0  0  0  0
   -5.5193   11.4405  -11.0314 C   0  0  0  0  0  0  0  0  0  0  0  0
   -7.8445   11.7086  -11.8627 C   0  0  0  0  0  0  0  0  0  0  0  0
 28 29  1  0  0  0
 29 30  1  0  0  0
 29 27  1  0  0  0
 27 13  1  0  0  0
 13 14  2  0  0  0
 14 15  1  0  0  0
 15 20  1  0  0  0
 20 21  1  0  0  0
 21 22  1  0  0  0
 22 23  1  0  0  0
 23 24  1  0  0  0
 23 25  1  0  0  0
 25 26  1  0  0  0
 15 16  2  0  0  0
 16 17  1  0  0  0
 16 18  1  0  0  0
 18 19  2  0  0  0
 19 11  1  0  0  0
 11  1  1  0  0  0
  1  2  1  0  0  0
  2  3  2  0  0  0
  3 31  1  0  0  0
 31 33  1  0  0  0
 33 34  2  0  0  0
 34 35  1  0  0  0
 35 36  2  0  0  0
 36 37  1  0  0  0
 37 38  2  0  0  0
 38 39  1  0  0  0
 39 40  2  0  0  0
 39 41  2  0  0  0
 39 42  1  0  0  0
 42 43  1  0  0  0
 42 44  1  0  0  0
  3  4  1  0  0  0
  4  5  2  0  0  0
  5  6  1  0  0  0
  6  7  1  0  0  0
  7  8  2  0  0  0
  8  9  1  0  0  0
 19 13  1  0  0  0
 26 20  1  0  0  0
  9  1  2  0  0  0
 38 33  1  0  0  0
  8  4  1  0  0  0
 11 12  1  0  0  0
 31 32  1  0  0  0
  6 10  1  0  0  0
M  END
> <minimizedAffinity>
-9.71207

$$$$
Molecule_1


 44 47  0  0  0  0  0  0  0  0999 V2000
  -10.2687   21.2449   -6.8060 N   0  0  0  0  0  0  0  0  0  0  0  0
  -11.2518   21.0050   -6.8449 H   0  0  0  0  0  0  0  0  0  0  0  0
   -7.5682   19.6380  -10.6554 C   0  0  0  0  0  0  0  0  0  0  0  0
   -8.0505   19.4273   -9.2427 C   0  0  0  0  0  0  0  0  0  0  0  0
   -8.9115   20.3910   -8.6836 C   0  0  0  0  0  0  0  0  0  0  0  0
   -9.4096   20.2912   -7.3798 C   0  0  0  0  0  0  0  0  0  0  0  0
   -9.0235   19.1803   -6.6116 C   0  0  0  0  0  0  0  0  0  0  0  0
   -8.1978   18.1974   -7.1614 C   0  0  0  0  0  0  0  0  0  0  0  0
   -7.6992   18.2984   -8.4782 C   0  0  0  0  0  0  0  0  0  0  0  0
   -6.7849   17.1997   -9.0175 C   0  0  0  0  0  0  0  0  0  0  0  0
   -7.4516   16.3388  -10.1039 C   0  0  0  0  0  0  0  0  0  0  0  0
   -6.5328   15.1997  -10.5461 C   0  0  0  0  0  0  0  0  0  0  0  0
   -6.1334   14.3741   -9.3970 N   0  0  0  0  0  0  0  0  0  0  0  0
   -5.3947   15.1836   -8.4145 C   0  0  0  0  0  0  0  0  0  0  0  0
   -6.2647   16.3174   -7.8740 C   0  0  0  0  0  0  0  0  0  0  0  0
   -5.3333   13.2069   -9.8090 C   0  0  0  0  0  0  0  0  0  0  0  0
   -6.1347   11.8964   -9.8331 C   0  0  0  0  0  0  0  0  0  0  0  0
   -6.9814   11.8040   -8.6989 O   0  0  0  0  0  0  0  0  0  0  0  0
   -7.6651   12.4939   -8.7896 H   0  0  0  0  0  0  0  0  0  0  0  0
   -9.5640   19.1020   -5.3499 O   0  0  0  0  0  0  0  0  0  0  0  0
   -8.7986   18.4268   -4.3450 C   0  0  0  0  0  0  0  0  0  0  0  0
   -8.6195   19.4178   -3.1997 C   0  0  0  0  0  0  0  0  0  0  0  0
   -9.5745   17.1998   -3.8765 C   0  0  0  0  0  0  0  0  0  0  0  0
  -10.0739   22.4848   -6.2117 C   0  0  0  0  0  0  0  0  0  0  0  0
   -9.7620   23.4962   -7.0430 N   0  0  0  0  0  0  0  0  0  0  0  0
   -9.5851   24.7105   -6.4813 C   0  0  0  0  0  0  0  0  0  0  0  0
   -9.6819   24.9545   -5.1323 C   0  0  0  0  0  0  0  0  0  0  0  0
   -9.4144   26.5295   -4.5003 Cl  0  0  0  0  0  0  0  0  0  0  0  0
   -9.9777   23.8540   -4.3422 C   0  0  0  0  0  0  0  0  0  0  0  0
  -10.1818   22.6343   -4.8828 N   0  0  0  0  0  0  0  0  0  0  0  0
  -10.1867   24.0208   -2.9470 N   0  0  0  0  0  0  0  0  0  0  0  0
   -9.9938   24.9883   -2.6627 H   0  0  0  0  0  0  0  0  0  0  0  0
   -9.7684   23.1073   -1.9575 C   0  0  0  0  0  0  0  0  0  0  0  0
   -8.3948   22.8572   -1.7884 C   0  0  0  0  0  0  0  0  0  0  0  0
   -7.9219   22.0556   -0.7458 C   0  0  0  0  0  0  0  0  0  0  0  0
   -8.8112   21.5294    0.1842 C   0  0  0  0  0  0  0  0  0  0  0  0
  -10.1727   21.7858    0.0477 C   0  0  0  0  0  0  0  0  0  0  0  0
  -10.6630   22.5407   -1.0323 C   0  0  0  0  0  0  0  0  0  0  0  0
  -12.4302   22.7630   -1.1862 S   0  0  0  0  0  0  0  0  0  0  0  0
  -13.1046   21.7171   -0.4296 O   0  0  0  0  0  0  0  0  0  0  0  0
  -12.6866   22.9077   -2.6099 O   0  0  0  0  0  0  0  0  0  0  0  0
  -12.8894   24.2890   -0.3562 C   0  0  0  0  0  0  0  0  0  0  0  0
  -11.7073   25.0448    0.2395 C   0  0  0  0  0  0  0  0  0  0  0  0
  -13.8007   25.1807   -1.1895 C   0  0  0  0  0  0  0  0  0  0  0  0
  3  4  1  0  0  0
  4  5  2  0  0  0
  5  6  1  0  0  0
  6  1  1  0  0  0
  1 24  1  0  0  0
 24 25  2  0  0  0
 25 26  1  0  0  0
 26 27  2  0  0  0
 27 28  1  0  0  0
 27 29  1  0  0  0
 29 31  1  0  0  0
 31 33  1  0  0  0
 33 34  2  0  0  0
 34 35  1  0  0  0
 35 36  2  0  0  0
 36 37  1  0  0  0
 37 38  2  0  0  0
 38 39  1  0  0  0
 39 40  2  0  0  0
 39 41  2  0  0  0
 39 42  1  0  0  0
 42 43  1  0  0  0
 42 44  1  0  0  0
 29 30  2  0  0  0
  6  7  2  0  0  0
  7 20  1  0  0  0
 20 21  1  0  0  0
 21 22  1  0  0  0
 21 23  1  0  0  0
  7  8  1  0  0  0
  8  9  2  0  0  0
  9 10  1  0  0  0
 10 11  1  0  0  0
 11 12  1  0  0  0
 12 13  1  0  0  0
 13 16  1  0  0  0
 16 17  1  0  0  0
 17 18  1  0  0  0
 13 14  1  0  0  0
 14 15  1  0  0  0
  9  4  1  0  0  0
 15 10  1  0  0  0
 30 24  1  0  0  0
 38 33  1  0  0  0
  1  2  1  0  0  0
 31 32  1  0  0  0
 18 19  1  0  0  0
M  END
> <minimizedAffinity>
-7.76087

$$$$
Molecule_2


 41 44  0  0  0  0  0  0  0  0999 V2000
   -8.4686   19.6593  -10.1039 C   0  0  0  0  0  0  0  0  0  0  0  0
   -8.6202   20.4647  -11.1688 N   0  0  0  0  0  0  0  0  0  0  0  0
   -8.0203   20.0900  -12.3144 C   0  0  0  0  0  0  0  0  0  0  0  0
   -7.2653   18.9483  -12.4367 C   0  0  0  0  0  0  0  0  0  0  0  0
   -6.5258   18.5523  -13.9310 Cl  0  0  0  0  0  0  0  0  0  0  0  0
   -7.1498   18.1744  -11.2945 C   0  0  0  0  0  0  0  0  0  0  0  0
   -7.7399   18.5335  -10.1376 N   0  0  0  0  0  0  0  0  0  0  0  0
   -9.0985   20.0827   -8.9449 N   0  0  0  0  0  0  0  0  0  0  0  0
   -9.7959   20.7910   -9.1473 H   0  0  0  0  0  0  0  0  0  0  0  0
   -8.8211   16.4070   -5.6132 C   0  0  0  0  0  0  0  0  0  0  0  0
   -9.0147   17.8708   -5.8985 C   0  0  0  0  0  0  0  0  0  0  0  0
   -8.9741   18.2871   -7.2480 C   0  0  0  0  0  0  0  0  0  0  0  0
   -9.1154   19.6287   -7.6206 C   0  0  0  0  0  0  0  0  0  0  0  0
   -9.2420   20.5678   -6.5874 C   0  0  0  0  0  0  0  0  0  0  0  0
   -9.3094   20.1791   -5.2476 C   0  0  0  0  0  0  0  0  0  0  0  0
   -9.2110   18.8243   -4.8745 C   0  0  0  0  0  0  0  0  0  0  0  0
   -9.2868   18.4316   -3.4016 C   0  0  0  0  0  0  0  0  0  0  0  0
   -8.1851   19.1077   -2.5568 C   0  0  0  0  0  0  0  0  0  0  0  0
   -8.7268   20.2580   -1.7157 C   0  0  0  0  0  0  0  0  0  0  0  0
   -9.8189   19.8696   -0.8221 N   0  0  0  0  0  0  0  0  0  0  0  0
  -10.6052   18.7220   -1.2762 C   0  0  0  0  0  0  0  0  0  0  0  0
  -10.6899   18.6416   -2.7975 C   0  0  0  0  0  0  0  0  0  0  0  0
   -9.4645   19.6904    0.1166 H   0  0  0  0  0  0  0  0  0  0  0  0
   -9.4110   21.8892   -6.9276 O   0  0  0  0  0  0  0  0  0  0  0  0
   -9.3729   22.7695   -5.7933 C   0  0  0  0  0  0  0  0  0  0  0  0
  -10.7978   23.2741   -5.5770 C   0  0  0  0  0  0  0  0  0  0  0  0
   -8.4382   23.9326   -6.1068 C   0  0  0  0  0  0  0  0  0  0  0  0
   -6.3733   17.0025  -11.3056 N   0  0  0  0  0  0  0  0  0  0  0  0
   -5.7382   16.9486  -12.1086 H   0  0  0  0  0  0  0  0  0  0  0  0
   -6.0482   16.1346  -10.2411 C   0  0  0  0  0  0  0  0  0  0  0  0
   -6.0889   16.5721   -8.9048 C   0  0  0  0  0  0  0  0  0  0  0  0
   -5.7347   15.7282   -7.8457 C   0  0  0  0  0  0  0  0  0  0  0  0
   -5.3495   14.4144   -8.0980 C   0  0  0  0  0  0  0  0  0  0  0  0
   -5.3461   13.9357   -9.4055 C   0  0  0  0  0  0  0  0  0  0  0  0
   -5.7304   14.7803  -10.4625 C   0  0  0  0  0  0  0  0  0  0  0  0
   -5.7498   14.0880  -12.1064 S   0  0  0  0  0  0  0  0  0  0  0  0
   -5.6598   15.1980  -13.0411 O   0  0  0  0  0  0  0  0  0  0  0  0
   -4.7373   13.0490  -12.1466 O   0  0  0  0  0  0  0  0  0  0  0  0
   -7.3570   13.3061  -12.2959 C   0  0  0  0  0  0  0  0  0  0  0  0
   -7.3892   11.9088  -11.6826 C   0  0  0  0  0  0  0  0  0  0  0  0
   -8.5017   14.1597  -11.7567 C   0  0  0  0  0  0  0  0  0  0  0  0
 10 11  1  0  0  0
 11 12  2  0  0  0
 12 13  1  0  0  0
 13  8  1  0  0  0
  8  1  1  0  0  0
  1  2  2  0  0  0
  2  3  1  0  0  0
  3  4  2  0  0  0
  4  5  1  0  0  0
  4  6  1  0  0  0
  6 28  1  0  0  0
 28 30  1  0  0  0
 30 31  2  0  0  0
 31 32  1  0  0  0
 32 33  2  0  0  0
 33 34  1  0  0  0
 34 35  2  0  0  0
 35 36  1  0  0  0
 36 37  2  0  0  0
 36 38  2  0  0  0
 36 39  1  0  0  0
 39 40  1  0  0  0
 39 41  1  0  0  0
  6  7  2  0  0  0
 13 14  2  0  0  0
 14 24  1  0  0  0
 24 25  1  0  0  0
 25 26  1  0  0  0
 25 27  1  0  0  0
 14 15  1  0  0  0
 15 16  2  0  0  0
 16 17  1  0  0  0
 17 18  1  0  0  0
 18 19  1  0  0  0
 19 20  1  0  0  0
 20 21  1  0  0  0
 21 22  1  0  0  0
 16 11  1  0  0  0
 22 17  1  0  0  0
  7  1  1  0  0  0
 35 30  1  0  0  0
  8  9  1  0  0  0
 28 29  1  0  0  0
 20 23  1  0  0  0
M  END
> <minimizedAffinity>
-10.16229

$$$$
Molecule_3


 31 33  0  0  0  0  0  0  0  0999 V2000
   -8.7014   17.2638   -5.9184 C   0  0  0  0  0  0  0  0  0  0  0  0
   -9.4226   16.5312   -5.2397 O   0  0  0  0  0  0  0  0  0  0  0  0
   -7.9803   16.7782   -7.0067 N   0  0  0  0  0  0  0  0  0  0  0  0
   -8.2153   15.3907   -7.4610 C   0  0  0  0  0  0  0  0  0  0  0  0
   -9.2494   15.3170   -8.5886 C   0  0  0  0  0  0  0  0  0  0  0  0
   -6.8964   14.6372   -7.7966 C   0  0  0  0  0  0  0  0  0  0  0  0
   -6.0862   14.2619   -6.9530 O   0  0  0  0  0  0  0  0  0  0  0  0
   -6.7337   14.3505   -9.1445 N   0  0  0  0  0  0  0  0  0  0  0  0
   -7.3122   14.8353   -9.8161 H   0  0  0  0  0  0  0  0  0  0  0  0
   -5.5283   13.6968   -9.6342 C   0  0  0  0  0  0  0  0  0  0  0  0
   -5.8207   12.2584  -10.0564 C   0  0  0  0  0  0  0  0  0  0  0  0
   -6.3394   12.4027  -11.4792 C   0  0  0  0  0  0  0  0  0  0  0  0
   -5.4620   13.4914  -12.0814 C   0  0  0  0  0  0  0  0  0  0  0  0
   -5.0040   14.3669  -10.9113 C   0  0  0  0  0  0  0  0  0  0  0  0
   -8.5101   18.7304   -5.5488 C   0  0  0  0  0  0  0  0  0  0  0  0
   -9.8186   19.4384   -5.1947 C   0  0  0  0  0  0  0  0  0  0  0  0
   -9.5132   23.7191   -5.7794 C   0  0  0  0  0  0  0  0  0  0  0  0
   -9.3319   22.8387   -6.8533 C   0  0  0  0  0  0  0  0  0  0  0  0
   -9.4373   21.4584   -6.6668 C   0  0  0  0  0  0  0  0  0  0  0  0
   -9.7262   20.9323   -5.4030 C   0  0  0  0  0  0  0  0  0  0  0  0
   -9.8892   21.8114   -4.3244 C   0  0  0  0  0  0  0  0  0  0  0  0
   -9.7825   23.1923   -4.5104 C   0  0  0  0  0  0  0  0  0  0  0  0
   -9.7175   25.9865   -4.7174 C   0  0  0  0  0  0  0  0  0  0  0  0
   -9.3942   25.2073   -5.9847 C   0  0  0  0  0  0  0  0  0  0  0  0
   -6.9309   17.5287   -7.6967 C   0  0  0  0  0  0  0  0  0  0  0  0
   -7.3581   18.1703   -8.9961 C   0  0  0  0  0  0  0  0  0  0  0  0
   -8.3655   19.1449   -9.0523 C   0  0  0  0  0  0  0  0  0  0  0  0
   -8.7004   19.7539  -10.2627 C   0  0  0  0  0  0  0  0  0  0  0  0
   -8.0280   19.4048  -11.4314 C   0  0  0  0  0  0  0  0  0  0  0  0
   -7.0167   18.4485  -11.3920 C   0  0  0  0  0  0  0  0  0  0  0  0
   -6.6784   17.8404  -10.1805 C   0  0  0  0  0  0  0  0  0  0  0  0
 23 24  1  0  0  0
 24 17  1  0  0  0
 17 18  2  0  0  0
 18 19  1  0  0  0
 19 20  2  0  0  0
 20 16  1  0  0  0
 16 15  1  0  0  0
 15  1  1  0  0  0
  1  2  2  0  0  0
  1  3  1  0  0  0
  3 25  1  0  0  0
 25 26  1  0  0  0
 26 27  2  0  0  0
 27 28  1  0  0  0
 28 29  2  0  0  0
 29 30  1  0  0  0
 30 31  2  0  0  0
  3  4  1  0  0  0
  4  5  1  0  0  0
  4  6  1  0  0  0
  6  7  2  0  0  0
  6  8  1  0  0  0
  8 10  1  0  0  0
 10 11  1  0  0  0
 11 12  1  0  0  0
 12 13  1  0  0  0
 13 14  1  0  0  0
 20 21  1  0  0  0
 21 22  2  0  0  0
 22 17  1  0  0  0
 31 26  1  0  0  0
 14 10  1  0  0  0
  8  9  1  0  0  0
M  END
> <minimizedAffinity>
-8.01493

$$$$
Molecule_4


 32 35  0  0  0  0  0  0  0  0999 V2000
   -7.2939   20.6458   -1.3324 C   0  0  0  0  0  0  0  0  0  0  0  0
   -8.0794   21.7306   -1.7294 C   0  0  0  0  0  0  0  0  0  0  0  0
   -9.0286   21.5967   -2.7476 C   0  0  0  0  0  0  0  0  0  0  0  0
   -9.1958   20.3629   -3.3639 C   0  0  0  0  0  0  0  0  0  0  0  0
   -8.4346   19.2971   -3.0173 N   0  0  0  0  0  0  0  0  0  0  0  0
   -7.5001   19.4693   -2.0433 C   0  0  0  0  0  0  0  0  0  0  0  0
  -10.2393   20.1051   -4.4373 C   0  0  0  0  0  0  0  0  0  0  0  0
  -10.4388   21.3184   -5.3562 C   0  0  0  0  0  0  0  0  0  0  0  0
   -9.3972   21.3961   -6.4677 C   0  0  0  0  0  0  0  0  0  0  0  0
   -9.2848   20.0793   -7.2301 C   0  0  0  0  0  0  0  0  0  0  0  0
   -9.0672   18.9304   -6.3467 N   0  0  0  0  0  0  0  0  0  0  0  0
   -8.5760   17.7178   -6.8421 C   0  0  0  0  0  0  0  0  0  0  0  0
   -8.9038   16.6219   -6.3959 O   0  0  0  0  0  0  0  0  0  0  0  0
  -10.0116   18.8094   -5.2308 C   0  0  0  0  0  0  0  0  0  0  0  0
   -7.5778   17.8108   -7.9366 C   0  0  0  0  0  0  0  0  0  0  0  0
   -7.8922   17.3474   -9.1589 C   0  0  0  0  0  0  0  0  0  0  0  0
   -6.9766   17.3166  -10.3122 C   0  0  0  0  0  0  0  0  0  0  0  0
   -6.9723   18.3002  -11.3134 C   0  0  0  0  0  0  0  0  0  0  0  0
   -6.1124   18.1935  -12.4086 C   0  0  0  0  0  0  0  0  0  0  0  0
   -5.2479   17.1050  -12.5213 C   0  0  0  0  0  0  0  0  0  0  0  0
   -5.2476   16.1176  -11.5395 C   0  0  0  0  0  0  0  0  0  0  0  0
   -6.1071   16.2236  -10.4452 C   0  0  0  0  0  0  0  0  0  0  0  0
   -6.3286   20.8271   -0.3421 N   0  0  0  0  0  0  0  0  0  0  0  0
   -5.5279   20.2122   -0.3637 H   0  0  0  0  0  0  0  0  0  0  0  0
   -7.8637   24.3551    2.5583 C   0  0  0  0  0  0  0  0  0  0  0  0
   -6.7357   23.5677    1.9538 C   0  0  0  0  0  0  0  0  0  0  0  0
   -5.4232   23.8529    2.2772 C   0  0  0  0  0  0  0  0  0  0  0  0
   -4.4580   23.0658    1.6783 C   0  0  0  0  0  0  0  0  0  0  0  0
   -3.0027   23.3207    1.9442 C   0  0  0  0  0  0  0  0  0  0  0  0
   -4.7702   22.0752    0.8156 N   0  0  0  0  0  0  0  0  0  0  0  0
   -6.0733   21.8746    0.5356 C   0  0  0  0  0  0  0  0  0  0  0  0
   -7.0629   22.5941    1.0825 N   0  0  0  0  0  0  0  0  0  0  0  0
 25 26  1  0  0  0
 26 27  2  0  0  0
 27 28  1  0  0  0
 28 29  1  0  0  0
 28 30  2  0  0  0
 30 31  1  0  0  0
 31 23  1  0  0  0
 23  1  1  0  0  0
  1  2  2  0  0  0
  2  3  1  0  0  0
  3  4  2  0  0  0
  4  7  1  0  0  0
  7  8  1  0  0  0
  8  9  1  0  0  0
  9 10  1  0  0  0
 10 11  1  0  0  0
 11 12  1  0  0  0
 12 13  2  0  0  0
 12 15  1  0  0  0
 15 16  2  0  0  0
 16 17  1  0  0  0
 17 18  2  0  0  0
 18 19  1  0  0  0
 19 20  2  0  0  0
 20 21  1  0  0  0
 21 22  2  0  0  0
 11 14  1  0  0  0
  4  5  1  0  0  0
  5  6  2  0  0  0
 31 32  2  0  0  0
 32 26  1  0  0  0
  6  1  1  0  0  0
 14  7  1  0  0  0
 22 17  1  0  0  0
 23 24  1  0  0  0
M  END
> <minimizedAffinity>
-7.82151

$$$$
Molecule_5


 26 28  0  0  0  0  0  0  0  0999 V2000
   -9.5734   18.7490   -6.1525 C   0  0  0  0  0  0  0  0  0  0  0  0
   -8.8374   17.8902   -6.9344 C   0  0  0  0  0  0  0  0  0  0  0  0
   -9.4322   16.6175   -6.7461 C   0  0  0  0  0  0  0  0  0  0  0  0
  -10.4701   16.6989   -5.8946 N   0  0  0  0  0  0  0  0  0  0  0  0
  -10.5527   18.0304   -5.5302 O   0  0  0  0  0  0  0  0  0  0  0  0
   -9.4416   22.9503   -5.2967 C   0  0  0  0  0  0  0  0  0  0  0  0
   -9.2797   22.4969   -6.6036 C   0  0  0  0  0  0  0  0  0  0  0  0
   -9.3227   21.1238   -6.8843 C   0  0  0  0  0  0  0  0  0  0  0  0
   -9.5276   20.1793   -5.8673 C   0  0  0  0  0  0  0  0  0  0  0  0
   -9.6889   20.6491   -4.5571 C   0  0  0  0  0  0  0  0  0  0  0  0
   -9.6459   22.0196   -4.2778 C   0  0  0  0  0  0  0  0  0  0  0  0
   -9.6319   25.2453   -5.8841 C   0  0  0  0  0  0  0  0  0  0  0  0
   -9.4217   24.2538   -4.8865 O   0  0  0  0  0  0  0  0  0  0  0  0
   -9.0254   15.3437   -7.3535 C   0  0  0  0  0  0  0  0  0  0  0  0
   -9.5153   14.2887   -6.9744 O   0  0  0  0  0  0  0  0  0  0  0  0
   -8.1137   15.5157   -8.3767 N   0  0  0  0  0  0  0  0  0  0  0  0
   -7.9578   16.4892   -8.6352 H   0  0  0  0  0  0  0  0  0  0  0  0
   -7.4712   14.5467   -9.1815 C   0  0  0  0  0  0  0  0  0  0  0  0
   -8.0745   13.8656  -10.2489 C   0  0  0  0  0  0  0  0  0  0  0  0
   -9.3675   14.0259  -10.5518 F   0  0  0  0  0  0  0  0  0  0  0  0
   -7.3718   12.9283  -11.0050 C   0  0  0  0  0  0  0  0  0  0  0  0
   -6.0525   12.6485  -10.6905 C   0  0  0  0  0  0  0  0  0  0  0  0
   -5.3778   11.7458  -11.4132 F   0  0  0  0  0  0  0  0  0  0  0  0
   -5.4244   13.2791   -9.6272 C   0  0  0  0  0  0  0  0  0  0  0  0
   -6.1342   14.2183   -8.8741 C   0  0  0  0  0  0  0  0  0  0  0  0
   -5.2141   15.0496   -7.4281 Br  0  0  0  0  0  0  0  0  0  0  0  0
 12 13  1  0  0  0
 13  6  1  0  0  0
  6  7  2  0  0  0
  7  8  1  0  0  0
  8  9  2  0  0  0
  9  1  1  0  0  0
  1  2  2  0  0  0
  2  3  1  0  0  0
  3 14  1  0  0  0
 14 15  2  0  0  0
 14 16  1  0  0  0
 16 18  1  0  0  0
 18 19  2  0  0  0
 19 20  1  0  0  0
 19 21  1  0  0  0
 21 22  2  0  0  0
 22 23  1  0  0  0
 22 24  1  0  0  0
 24 25  2  0  0  0
 25 26  1  0  0  0
  3  4  2  0  0  0
  4  5  1  0  0  0
  9 10  1  0  0  0
 10 11  2  0  0  0
 11  6  1  0  0  0
  5  1  1  0  0  0
 25 18  1  0  0  0
 16 17  1  0  0  0
M  END
> <minimizedAffinity>
-8.05301

$$$$
Molecule_6


 25 26  0  0  0  0  0  0  0  0999 V2000
   -9.3213   16.6147   -7.9847 C   0  0  0  0  0  0  0  0  0  0  0  0
   -8.8049   15.2048   -8.1900 C   0  0  0  0  0  0  0  0  0  0  0  0
   -9.2662   14.2243   -7.6121 O   0  0  0  0  0  0  0  0  0  0  0  0
   -7.7732   15.0981   -9.1133 N   0  0  0  0  0  0  0  0  0  0  0  0
   -7.4904   15.8973   -9.6661 H   0  0  0  0  0  0  0  0  0  0  0  0
   -7.1975   13.8037   -9.4695 C   0  0  0  0  0  0  0  0  0  0  0  0
   -5.6637   13.8412   -9.3254 C   0  0  0  0  0  0  0  0  0  0  0  0
   -4.9580   14.1467  -10.6395 C   0  0  0  0  0  0  0  0  0  0  0  0
   -5.2860   13.1162  -11.7206 C   0  0  0  0  0  0  0  0  0  0  0  0
   -6.6143   12.3912  -11.4933 C   0  0  0  0  0  0  0  0  0  0  0  0
   -7.6836   13.2887  -10.8548 C   0  0  0  0  0  0  0  0  0  0  0  0
   -8.1164   14.3873  -11.8370 C   0  0  0  0  0  0  0  0  0  0  0  0
   -8.2269   17.6544   -8.0822 C   0  0  0  0  0  0  0  0  0  0  0  0
   -7.3301   17.7291   -7.2423 O   0  0  0  0  0  0  0  0  0  0  0  0
   -7.8262   19.3420  -11.2620 N   0  0  0  0  0  0  0  0  0  0  0  0
   -7.6203   18.2573  -10.4617 C   0  0  0  0  0  0  0  0  0  0  0  0
   -8.2049   18.5458   -9.2419 C   0  0  0  0  0  0  0  0  0  0  0  0
   -8.7429   19.8402   -9.4292 C   0  0  0  0  0  0  0  0  0  0  0  0
   -8.5403   20.3105  -10.6613 N   0  0  0  0  0  0  0  0  0  0  0  0
   -7.3986   19.4987  -12.6405 C   0  0  0  0  0  0  0  0  0  0  0  0
   -6.9867   18.2041  -14.7493 C   0  0  0  0  0  0  0  0  0  0  0  0
   -6.7692   18.2293  -13.2354 C   0  0  0  0  0  0  0  0  0  0  0  0
   -5.2741   18.1314  -12.9246 C   0  0  0  0  0  0  0  0  0  0  0  0
   -9.9979   16.7309   -6.6902 C   0  0  0  0  0  0  0  0  0  0  0  0
  -10.6166   16.7957   -5.7098 N   0  0  0  0  0  0  0  0  0  0  0  0
 21 22  1  0  0  0
 22 23  1  0  0  0
 22 20  1  0  0  0
 20 15  1  0  0  0
 15 16  1  0  0  0
 16 17  2  0  0  0
 17 13  1  0  0  0
 13 14  2  0  0  0
 13  1  1  0  0  0
  1 24  1  0  0  0
 24 25  3  0  0  0
  1  2  1  0  0  0
  2  3  2  0  0  0
  2  4  1  0  0  0
  4  6  1  0  0  0
  6  7  1  0  0  0
  7  8  1  0  0  0
  8  9  1  0  0  0
  9 10  1  0  0  0
 10 11  1  0  0  0
 11 12  1  0  0  0
 17 18  1  0  0  0
 18 19  2  0  0  0
 19 15  1  0  0  0
 11  6  1  0  0  0
  4  5  1  0  0  0
M  END
> <minimizedAffinity>
-7.57169

$$$$
Molecule_7


 25 27  0  0  0  0  0  0  0  0999 V2000
   -8.9422   15.8499   -7.1314 C   0  0  0  0  0  0  0  0  0  0  0  0
   -7.8605   16.1361   -7.8096 N   0  0  0  0  0  0  0  0  0  0  0  0
   -7.6482   14.9871   -8.5405 C   0  0  0  0  0  0  0  0  0  0  0  0
   -8.5397   14.0057   -8.3151 N   0  0  0  0  0  0  0  0  0  0  0  0
   -9.3569   14.5893   -7.4176 N   0  0  0  0  0  0  0  0  0  0  0  0
  -10.1570   14.0878   -7.0510 H   0  0  0  0  0  0  0  0  0  0  0  0
   -9.7938   16.8452   -6.0209 S   0  0  0  0  0  0  0  0  0  0  0  0
   -8.6905   18.2893   -5.9951 C   0  0  0  0  0  0  0  0  0  0  0  0
   -9.1430   19.2109   -8.1837 O   0  0  0  0  0  0  0  0  0  0  0  0
   -9.1259   19.3840   -6.9647 C   0  0  0  0  0  0  0  0  0  0  0  0
   -9.5234   20.6486   -6.3398 C   0  0  0  0  0  0  0  0  0  0  0  0
   -9.3129   21.9543   -6.7575 C   0  0  0  0  0  0  0  0  0  0  0  0
   -9.8651   22.9141   -5.8544 C   0  0  0  0  0  0  0  0  0  0  0  0
  -10.4704   22.2997   -4.7909 C   0  0  0  0  0  0  0  0  0  0  0  0
  -11.2582   23.0717   -3.4756 Cl  0  0  0  0  0  0  0  0  0  0  0  0
  -10.3908   20.6142   -4.8528 S   0  0  0  0  0  0  0  0  0  0  0  0
   -6.5042   14.8408   -9.4931 C   0  0  0  0  0  0  0  0  0  0  0  0
   -5.7588   16.0515   -9.6937 O   0  0  0  0  0  0  0  0  0  0  0  0
   -6.1265   16.8850  -10.7122 C   0  0  0  0  0  0  0  0  0  0  0  0
   -6.9789   17.9861  -10.6182 C   0  0  0  0  0  0  0  0  0  0  0  0
   -7.2638   18.7539  -11.7537 C   0  0  0  0  0  0  0  0  0  0  0  0
   -6.6971   18.4211  -12.9818 C   0  0  0  0  0  0  0  0  0  0  0  0
   -7.0505   19.3683  -14.3732 Cl  0  0  0  0  0  0  0  0  0  0  0  0
   -5.8453   17.3261  -13.0865 C   0  0  0  0  0  0  0  0  0  0  0  0
   -5.5625   16.5625  -11.9515 C   0  0  0  0  0  0  0  0  0  0  0  0
  9 10  2  0  0  0
 10  8  1  0  0  0
  8  7  1  0  0  0
  7  1  1  0  0  0
  1  2  2  0  0  0
  2  3  1  0  0  0
  3 17  1  0  0  0
 17 18  1  0  0  0
 18 19  1  0  0  0
 19 20  2  0  0  0
 20 21  1  0  0  0
 21 22  2  0  0  0
 22 23  1  0  0  0
 22 24  1  0  0  0
 24 25  2  0  0  0
  3  4  2  0  0  0
  4  5  1  0  0  0
 10 11  1  0  0  0
 11 12  2  0  0  0
 12 13  1  0  0  0
 13 14  2  0  0  0
 14 15  1  0  0  0
 14 16  1  0  0  0
  5  1  1  0  0  0
 16 11  1  0  0  0
 25 19  1  0  0  0
  5  6  1  0  0  0
M  END
> <minimizedAffinity>
-7.47566

$$$$
Molecule_8


 26 28  0  0  0  0  0  0  0  0999 V2000
   -9.2064   19.3783   -4.9469 C   0  0  0  0  0  0  0  0  0  0  0  0
   -9.8417   20.5177   -4.4446 C   0  0  0  0  0  0  0  0  0  0  0  0
  -10.0926   21.6367   -5.2689 C   0  0  0  0  0  0  0  0  0  0  0  0
   -9.6829   21.5900   -6.6153 C   0  0  0  0  0  0  0  0  0  0  0  0
   -9.0446   20.4622   -7.1276 C   0  0  0  0  0  0  0  0  0  0  0  0
   -8.8270   19.3677   -6.2945 C   0  0  0  0  0  0  0  0  0  0  0  0
  -10.7855   22.8537   -4.6848 C   0  0  0  0  0  0  0  0  0  0  0  0
  -11.0486   22.7026   -2.8865 S   0  0  0  0  0  0  0  0  0  0  0  0
  -10.6591   24.4213   -2.4775 C   0  0  0  0  0  0  0  0  0  0  0  0
   -9.5003   24.8479   -3.3548 C   0  0  0  0  0  0  0  0  0  0  0  0
   -9.9061   24.4062   -5.0629 S   0  0  0  0  0  0  0  0  0  0  0  0
   -9.9648   17.6148   -3.5423 C   0  0  0  0  0  0  0  0  0  0  0  0
   -8.8950   18.2577   -4.2232 O   0  0  0  0  0  0  0  0  0  0  0  0
   -8.1504   18.2636   -6.8229 O   0  0  0  0  0  0  0  0  0  0  0  0
   -8.8534   17.6525   -7.8408 C   0  0  0  0  0  0  0  0  0  0  0  0
   -9.9910   17.2083   -7.8049 O   0  0  0  0  0  0  0  0  0  0  0  0
   -8.0222   17.6284   -9.0653 C   0  0  0  0  0  0  0  0  0  0  0  0
   -7.8680   18.7163   -9.9271 C   0  0  0  0  0  0  0  0  0  0  0  0
   -7.0562   18.5907  -11.0566 C   0  0  0  0  0  0  0  0  0  0  0  0
   -6.4059   17.3786  -11.3044 C   0  0  0  0  0  0  0  0  0  0  0  0
   -6.5523   16.3086  -10.4708 N   0  0  0  0  0  0  0  0  0  0  0  0
   -7.3454   16.4582   -9.3782 C   0  0  0  0  0  0  0  0  0  0  0  0
   -5.5367   17.2520  -12.5515 C   0  0  0  0  0  0  0  0  0  0  0  0
   -6.2760   17.2370  -13.7008 F   0  0  0  0  0  0  0  0  0  0  0  0
   -4.6291   18.2552  -12.7115 F   0  0  0  0  0  0  0  0  0  0  0  0
   -4.8199   16.0904  -12.5680 F   0  0  0  0  0  0  0  0  0  0  0  0
 12 13  1  0  0  0
 13  1  1  0  0  0
  1  2  2  0  0  0
  2  3  1  0  0  0
  3  7  1  0  0  0
  7  8  1  0  0  0
  8  9  1  0  0  0
  9 10  1  0  0  0
 10 11  1  0  0  0
  3  4  2  0  0  0
  4  5  1  0  0  0
  5  6  2  0  0  0
  6 14  1  0  0  0
 14 15  1  0  0  0
 15 16  2  0  0  0
 15 17  1  0  0  0
 17 18  2  0  0  0
 18 19  1  0  0  0
 19 20  2  0  0  0
 20 23  1  0  0  0
 23 24  1  0  0  0
 23 25  1  0  0  0
 23 26  1  0  0  0
 20 21  1  0  0  0
 21 22  2  0  0  0
  6  1  1  0  0  0
 22 17  1  0  0  0
 11  7  1  0  0  0
M  END
> <minimizedAffinity>
-7.40878

$$$$
Molecule_9


 29 32  0  0  0  0  0  0  0  0999 V2000
   -9.2395   19.0897   -7.4847 C   0  0  0  0  0  0  0  0  0  0  0  0
   -9.2843   17.7451   -7.6069 N   0  0  0  0  0  0  0  0  0  0  0  0
   -9.4783   16.9964   -6.5030 C   0  0  0  0  0  0  0  0  0  0  0  0
   -9.6714   17.4698   -5.2635 N   0  0  0  0  0  0  0  0  0  0  0  0
   -9.6481   18.8102   -5.1939 C   0  0  0  0  0  0  0  0  0  0  0  0
   -9.8814   19.5971   -3.7075 S   0  0  0  0  0  0  0  0  0  0  0  0
   -9.7149   21.1453   -4.4164 C   0  0  0  0  0  0  0  0  0  0  0  0
   -9.8229   22.3611   -3.5540 C   0  0  0  0  0  0  0  0  0  0  0  0
   -9.4864   21.0714   -5.7842 C   0  0  0  0  0  0  0  0  0  0  0  0
   -9.2996   22.2506   -6.6873 C   0  0  0  0  0  0  0  0  0  0  0  0
   -9.4445   19.6943   -6.2385 C   0  0  0  0  0  0  0  0  0  0  0  0
   -9.0295   19.8745   -8.6156 O   0  0  0  0  0  0  0  0  0  0  0  0
   -6.5762   18.3349  -11.6111 C   0  0  0  0  0  0  0  0  0  0  0  0
   -6.2783   18.0685  -10.2670 C   0  0  0  0  0  0  0  0  0  0  0  0
   -7.0941   18.5788   -9.2543 C   0  0  0  0  0  0  0  0  0  0  0  0
   -8.2184   19.3391   -9.5865 C   0  0  0  0  0  0  0  0  0  0  0  0
   -8.5051   19.6364  -10.9180 C   0  0  0  0  0  0  0  0  0  0  0  0
   -7.6884   19.1276  -11.9304 C   0  0  0  0  0  0  0  0  0  0  0  0
   -5.7438   17.8112  -12.7274 C   0  0  0  0  0  0  0  0  0  0  0  0
   -4.6378   18.2468  -13.0061 O   0  0  0  0  0  0  0  0  0  0  0  0
   -6.4783   15.5961  -12.6488 C   0  0  0  0  0  0  0  0  0  0  0  0
   -6.3962   16.8190  -13.3824 O   0  0  0  0  0  0  0  0  0  0  0  0
   -9.4712   15.4825   -6.6906 C   0  0  0  0  0  0  0  0  0  0  0  0
   -8.1790   14.8948   -7.1350 N   0  0  0  0  0  0  0  0  0  0  0  0
   -7.0394   15.7249   -6.7115 C   0  0  0  0  0  0  0  0  0  0  0  0
   -5.7077   15.1259   -7.1683 C   0  0  0  0  0  0  0  0  0  0  0  0
   -5.6834   14.8942   -8.6743 C   0  0  0  0  0  0  0  0  0  0  0  0
   -6.9043   14.0910   -9.1031 C   0  0  0  0  0  0  0  0  0  0  0  0
   -8.1958   14.7329   -8.5965 C   0  0  0  0  0  0  0  0  0  0  0  0
 21 22  1  0  0  0
 22 19  1  0  0  0
 19 20  2  0  0  0
 19 13  1  0  0  0
 13 14  2  0  0  0
 14 15  1  0  0  0
 15 16  2  0  0  0
 16 12  1  0  0  0
 12  1  1  0  0  0
  1  2  2  0  0  0
  2  3  1  0  0  0
  3 23  1  0  0  0
 23 24  1  0  0  0
 24 25  1  0  0  0
 25 26  1  0  0  0
 26 27  1  0  0  0
 27 28  1  0  0  0
 28 29  1  0  0  0
  3  4  2  0  0  0
  4  5  1  0  0  0
  5  6  1  0  0  0
  6  7  1  0  0  0
  7  8  1  0  0  0
  7  9  2  0  0  0
  9 10  1  0  0  0
  9 11  1  0  0  0
 16 17  1  0  0  0
 17 18  2  0  0  0
 18 13  1  0  0  0
 11  1  1  0  0  0
 29 24  1  0  0  0
 11  5  2  0  0  0
M  END
> <minimizedAffinity>
-8.32040

$$$$
