Molecule_0


 44 48  0  0  0  0  0  0  0  0999 V2000
   -8.3615   19.4638  -10.0205 C   0  0  0  0  0  0  0  0  0  0  0  0
   -7.4429   18.4427  -10.0235 N   0  0  0  0  0  0  0  0  0  0  0  0
   -6.7485   18.0965  -11.1513 C   0  0  0  0  0  0  0  0  0  0  0  0
   -7.0993   18.8904  -12.2463 C   0  0  0  0  0  0  0  0  0  0  0  0
   -6.6990   18.8272  -13.5569 C   0  0  0  0  0  0  0  0  0  0  0  0
   -7.3945   19.8231  -14.1916 N   0  0  0  0  0  0  0  0  0  0  0  0
   -8.2168   20.5164  -13.3880 N   0  0  0  0  0  0  0  0  0  0  0  0
   -8.0585   19.9299  -12.1965 C   0  0  0  0  0  0  0  0  0  0  0  0
   -8.7198   20.2414  -11.0694 N   0  0  0  0  0  0  0  0  0  0  0  0
   -7.3595   20.0759  -15.1733 H   0  0  0  0  0  0  0  0  0  0  0  0
   -9.0581   19.7766   -8.8573 N   0  0  0  0  0  0  0  0  0  0  0  0
   -9.5482   20.6607   -8.9735 H   0  0  0  0  0  0  0  0  0  0  0  0
   -9.1845   20.2474   -6.5031 C   0  0  0  0  0  0  0  0  0  0  0  0
   -9.1525   19.8387   -5.1680 C   0  0  0  0  0  0  0  0  0  0  0  0
   -9.0374   18.4774   -4.7924 C   0  0  0  0  0  0  0  0  0  0  0  0
   -9.0028   17.5251   -5.8280 C   0  0  0  0  0  0  0  0  0  0  0  0
   -8.9257   16.0441   -5.6065 C   0  0  0  0  0  0  0  0  0  0  0  0
   -9.0175   17.9586   -7.1791 C   0  0  0  0  0  0  0  0  0  0  0  0
   -9.0704   19.3071   -7.5365 C   0  0  0  0  0  0  0  0  0  0  0  0
   -8.9664   18.2243   -3.2822 C   0  0  0  0  0  0  0  0  0  0  0  0
   -8.1342   19.2765   -2.5340 C   0  0  0  0  0  0  0  0  0  0  0  0
   -8.9668   20.2835   -1.7488 C   0  0  0  0  0  0  0  0  0  0  0  0
   -9.9059   19.5921   -0.8598 N   0  0  0  0  0  0  0  0  0  0  0  0
  -10.5711   20.5526    0.0203 C   0  0  0  0  0  0  0  0  0  0  0  0
  -10.8926   18.8424   -1.6420 C   0  0  0  0  0  0  0  0  0  0  0  0
  -10.2388   17.7840   -2.5328 C   0  0  0  0  0  0  0  0  0  0  0  0
   -9.2249   21.5672   -6.8870 O   0  0  0  0  0  0  0  0  0  0  0  0
   -8.6170   23.7933   -6.2067 C   0  0  0  0  0  0  0  0  0  0  0  0
   -9.3879   22.5276   -5.8320 C   0  0  0  0  0  0  0  0  0  0  0  0
  -10.8784   22.8421   -5.7300 C   0  0  0  0  0  0  0  0  0  0  0  0
   -5.8693   16.9948  -11.0644 N   0  0  0  0  0  0  0  0  0  0  0  0
   -4.9431   17.4121  -11.2042 H   0  0  0  0  0  0  0  0  0  0  0  0
   -5.8895   15.9721  -10.0945 C   0  0  0  0  0  0  0  0  0  0  0  0
   -6.0067   16.3523   -8.7436 C   0  0  0  0  0  0  0  0  0  0  0  0
   -5.9114   15.4202   -7.7091 C   0  0  0  0  0  0  0  0  0  0  0  0
   -5.6686   14.0836   -8.0044 C   0  0  0  0  0  0  0  0  0  0  0  0
   -5.5547   13.6770   -9.3332 C   0  0  0  0  0  0  0  0  0  0  0  0
   -5.7004   14.6067  -10.3752 C   0  0  0  0  0  0  0  0  0  0  0  0
   -5.5950   13.9925  -12.0466 S   0  0  0  0  0  0  0  0  0  0  0  0
   -5.3202   15.1303  -12.9110 O   0  0  0  0  0  0  0  0  0  0  0  0
   -4.6705   12.8704  -12.0110 O   0  0  0  0  0  0  0  0  0  0  0  0
   -7.2350   13.4059  -12.5073 C   0  0  0  0  0  0  0  0  0  0  0  0
   -7.5874   12.0752  -11.8509 C   0  0  0  0  0  0  0  0  0  0  0  0
   -8.3273   14.4508  -12.2984 C   0  0  0  0  0  0  0  0  0  0  0  0
 28 29  1  0  0  0
 29 30  1  0  0  0
 29 27  1  0  0  0
 27 13  1  0  0  0
 13 14  2  0  0  0
 14 15  1  0  0  0
 15 20  1  0  0  0
 20 21  1  0  0  0
 21 22  1  0  0  0
 22 23  1  0  0  0
 23 24  1  0  0  0
 23 25  1  0  0  0
 25 26  1  0  0  0
 15 16  2  0  0  0
 16 17  1  0  0  0
 16 18  1  0  0  0
 18 19  2  0  0  0
 19 11  1  0  0  0
 11  1  1  0  0  0
  1  2  1  0  0  0
  2  3  2  0  0  0
  3 31  1  0  0  0
 31 33  1  0  0  0
 33 34  2  0  0  0
 34 35  1  0  0  0
 35 36  2  0  0  0
 36 37  1  0  0  0
 37 38  2  0  0  0
 38 39  1  0  0  0
 39 40  2  0  0  0
 39 41  2  0  0  0
 39 42  1  0  0  0
 42 43  1  0  0  0
 42 44  1  0  0  0
  3  4  1  0  0  0
  4  5  2  0  0  0
  5  6  1  0  0  0
  6  7  1  0  0  0
  7  8  2  0  0  0
  8  9  1  0  0  0
 19 13  1  0  0  0
 26 20  1  0  0  0
  9  1  2  0  0  0
 38 33  1  0  0  0
  8  4  1  0  0  0
 11 12  1  0  0  0
 31 32  1  0  0  0
  6 10  1  0  0  0
M  END
> <minimizedAffinity>
-10.33072

$$$$
Molecule_1


 44 47  0  0  0  0  0  0  0  0999 V2000
  -10.0287   20.3116   -7.8158 N   0  0  0  0  0  0  0  0  0  0  0  0
  -10.7292   19.5956   -7.7015 H   0  0  0  0  0  0  0  0  0  0  0  0
   -9.0406   24.5573   -5.4995 C   0  0  0  0  0  0  0  0  0  0  0  0
   -9.2802   23.0787   -5.3854 C   0  0  0  0  0  0  0  0  0  0  0  0
   -9.5476   22.3887   -6.5874 C   0  0  0  0  0  0  0  0  0  0  0  0
   -9.7737   21.0171   -6.6237 C   0  0  0  0  0  0  0  0  0  0  0  0
   -9.8288   20.3405   -5.3996 C   0  0  0  0  0  0  0  0  0  0  0  0
   -9.5529   20.9904   -4.1973 C   0  0  0  0  0  0  0  0  0  0  0  0
   -9.2826   22.3696   -4.1658 C   0  0  0  0  0  0  0  0  0  0  0  0
   -8.9730   22.9773   -2.8022 C   0  0  0  0  0  0  0  0  0  0  0  0
   -8.3713   22.0224   -1.7614 C   0  0  0  0  0  0  0  0  0  0  0  0
   -7.9897   22.7583   -0.4766 C   0  0  0  0  0  0  0  0  0  0  0  0
   -8.8270   23.9305   -0.1884 N   0  0  0  0  0  0  0  0  0  0  0  0
  -10.1875   23.8069   -0.7110 C   0  0  0  0  0  0  0  0  0  0  0  0
  -10.1743   23.7606   -2.2383 C   0  0  0  0  0  0  0  0  0  0  0  0
   -8.7517   24.3362    1.2267 C   0  0  0  0  0  0  0  0  0  0  0  0
   -8.1541   25.7276    1.5172 C   0  0  0  0  0  0  0  0  0  0  0  0
   -6.8009   25.6436    1.9755 O   0  0  0  0  0  0  0  0  0  0  0  0
   -6.8039   25.0505    2.7487 H   0  0  0  0  0  0  0  0  0  0  0  0
  -10.1066   18.9925   -5.4552 O   0  0  0  0  0  0  0  0  0  0  0  0
   -9.1381   18.1330   -4.8175 C   0  0  0  0  0  0  0  0  0  0  0  0
   -8.9197   16.9587   -5.7695 C   0  0  0  0  0  0  0  0  0  0  0  0
   -9.6514   17.6135   -3.4779 C   0  0  0  0  0  0  0  0  0  0  0  0
   -9.1530   19.8858   -8.8186 C   0  0  0  0  0  0  0  0  0  0  0  0
   -8.6429   20.7366   -9.7201 N   0  0  0  0  0  0  0  0  0  0  0  0
   -7.7699   20.2315  -10.6177 C   0  0  0  0  0  0  0  0  0  0  0  0
   -7.3758   18.9123  -10.6505 C   0  0  0  0  0  0  0  0  0  0  0  0
   -6.3482   18.3756  -11.9180 Cl  0  0  0  0  0  0  0  0  0  0  0  0
   -7.9470   18.1000   -9.6875 C   0  0  0  0  0  0  0  0  0  0  0  0
   -8.8232   18.5836   -8.7738 N   0  0  0  0  0  0  0  0  0  0  0  0
   -7.7491   16.7185   -9.6102 N   0  0  0  0  0  0  0  0  0  0  0  0
   -8.6626   16.2588   -9.6698 H   0  0  0  0  0  0  0  0  0  0  0  0
   -6.8488   15.9382   -8.8576 C   0  0  0  0  0  0  0  0  0  0  0  0
   -5.9517   16.5301   -7.9509 C   0  0  0  0  0  0  0  0  0  0  0  0
   -5.0729   15.7529   -7.1988 C   0  0  0  0  0  0  0  0  0  0  0  0
   -5.0831   14.3690   -7.3249 C   0  0  0  0  0  0  0  0  0  0  0  0
   -5.9709   13.7524   -8.2114 C   0  0  0  0  0  0  0  0  0  0  0  0
   -6.8339   14.5310   -8.9837 C   0  0  0  0  0  0  0  0  0  0  0  0
   -7.9855   13.7943  -10.1385 S   0  0  0  0  0  0  0  0  0  0  0  0
   -9.3153   14.1372   -9.6834 O   0  0  0  0  0  0  0  0  0  0  0  0
   -7.5692   12.3992  -10.2150 O   0  0  0  0  0  0  0  0  0  0  0  0
   -7.7633   14.4855  -11.7772 C   0  0  0  0  0  0  0  0  0  0  0  0
   -6.3568   14.1410  -12.2723 C   0  0  0  0  0  0  0  0  0  0  0  0
   -8.7854   13.9624  -12.7912 C   0  0  0  0  0  0  0  0  0  0  0  0
  3  4  1  0  0  0
  4  5  2  0  0  0
  5  6  1  0  0  0
  6  1  1  0  0  0
  1 24  1  0  0  0
 24 25  2  0  0  0
 25 26  1  0  0  0
 26 27  2  0  0  0
 27 28  1  0  0  0
 27 29  1  0  0  0
 29 31  1  0  0  0
 31 33  1  0  0  0
 33 34  2  0  0  0
 34 35  1  0  0  0
 35 36  2  0  0  0
 36 37  1  0  0  0
 37 38  2  0  0  0
 38 39  1  0  0  0
 39 40  2  0  0  0
 39 41  2  0  0  0
 39 42  1  0  0  0
 42 43  1  0  0  0
 42 44  1  0  0  0
 29 30  2  0  0  0
  6  7  2  0  0  0
  7 20  1  0  0  0
 20 21  1  0  0  0
 21 22  1  0  0  0
 21 23  1  0  0  0
  7  8  1  0  0  0
  8  9  2  0  0  0
  9 10  1  0  0  0
 10 11  1  0  0  0
 11 12  1  0  0  0
 12 13  1  0  0  0
 13 16  1  0  0  0
 16 17  1  0  0  0
 17 18  1  0  0  0
 13 14  1  0  0  0
 14 15  1  0  0  0
  9  4  1  0  0  0
 15 10  1  0  0  0
 30 24  1  0  0  0
 38 33  1  0  0  0
  1  2  1  0  0  0
 31 32  1  0  0  0
 18 19  1  0  0  0
M  END
> <minimizedAffinity>
-8.14979

$$$$
Molecule_2


 41 44  0  0  0  0  0  0  0  0999 V2000
   -8.6541   19.6165  -10.1938 C   0  0  0  0  0  0  0  0  0  0  0  0
   -8.6925   20.4558  -11.2375 N   0  0  0  0  0  0  0  0  0  0  0  0
   -7.9777   20.1122  -12.3266 C   0  0  0  0  0  0  0  0  0  0  0  0
   -7.2147   18.9733  -12.4095 C   0  0  0  0  0  0  0  0  0  0  0  0
   -6.3292   18.6139  -13.8352 Cl  0  0  0  0  0  0  0  0  0  0  0  0
   -7.2109   18.1636  -11.2833 C   0  0  0  0  0  0  0  0  0  0  0  0
   -7.9378   18.4787  -10.1874 N   0  0  0  0  0  0  0  0  0  0  0  0
   -9.4116   19.8459   -9.0531 N   0  0  0  0  0  0  0  0  0  0  0  0
  -10.3668   20.0545   -9.3081 H   0  0  0  0  0  0  0  0  0  0  0  0
   -8.8597   16.3058   -5.6096 C   0  0  0  0  0  0  0  0  0  0  0  0
   -8.9998   17.7706   -5.9411 C   0  0  0  0  0  0  0  0  0  0  0  0
   -9.0867   18.1315   -7.3044 C   0  0  0  0  0  0  0  0  0  0  0  0
   -9.2657   19.4561   -7.7127 C   0  0  0  0  0  0  0  0  0  0  0  0
   -9.2295   20.4388   -6.7142 C   0  0  0  0  0  0  0  0  0  0  0  0
   -9.1943   20.1035   -5.3579 C   0  0  0  0  0  0  0  0  0  0  0  0
   -9.1078   18.7652   -4.9443 C   0  0  0  0  0  0  0  0  0  0  0  0
   -9.0768   18.4274   -3.4597 C   0  0  0  0  0  0  0  0  0  0  0  0
  -10.4582   18.4065   -2.7850 C   0  0  0  0  0  0  0  0  0  0  0  0
  -10.3173   18.0176   -1.3097 C   0  0  0  0  0  0  0  0  0  0  0  0
   -9.2635   18.7325   -0.5867 N   0  0  0  0  0  0  0  0  0  0  0  0
   -8.6691   19.8200   -1.3565 C   0  0  0  0  0  0  0  0  0  0  0  0
   -8.1034   19.3453   -2.6943 C   0  0  0  0  0  0  0  0  0  0  0  0
   -8.5380   18.0729   -0.3070 H   0  0  0  0  0  0  0  0  0  0  0  0
   -9.2830   21.7831   -7.0147 O   0  0  0  0  0  0  0  0  0  0  0  0
   -9.4098   22.6065   -5.8379 C   0  0  0  0  0  0  0  0  0  0  0  0
  -10.8435   23.1056   -5.6345 C   0  0  0  0  0  0  0  0  0  0  0  0
   -8.4736   23.7978   -6.0427 C   0  0  0  0  0  0  0  0  0  0  0  0
   -6.4024   17.0062  -11.2433 N   0  0  0  0  0  0  0  0  0  0  0  0
   -5.6760   17.0154  -11.9714 H   0  0  0  0  0  0  0  0  0  0  0  0
   -6.0548   16.2120  -10.1272 C   0  0  0  0  0  0  0  0  0  0  0  0
   -6.1224   16.7147   -8.8164 C   0  0  0  0  0  0  0  0  0  0  0  0
   -5.7558   15.9366   -7.7100 C   0  0  0  0  0  0  0  0  0  0  0  0
   -5.3286   14.6256   -7.8853 C   0  0  0  0  0  0  0  0  0  0  0  0
   -5.2958   14.0816   -9.1656 C   0  0  0  0  0  0  0  0  0  0  0  0
   -5.6870   14.8591  -10.2707 C   0  0  0  0  0  0  0  0  0  0  0  0
   -5.6787   14.0872  -11.8765 S   0  0  0  0  0  0  0  0  0  0  0  0
   -5.6675   15.1700  -12.8518 O   0  0  0  0  0  0  0  0  0  0  0  0
   -4.6252   13.0872  -11.8827 O   0  0  0  0  0  0  0  0  0  0  0  0
   -7.2681   13.2502  -11.9879 C   0  0  0  0  0  0  0  0  0  0  0  0
   -8.3619   13.9797  -11.2198 C   0  0  0  0  0  0  0  0  0  0  0  0
   -7.1321   11.8128  -11.4879 C   0  0  0  0  0  0  0  0  0  0  0  0
 10 11  1  0  0  0
 11 12  2  0  0  0
 12 13  1  0  0  0
 13  8  1  0  0  0
  8  1  1  0  0  0
  1  2  2  0  0  0
  2  3  1  0  0  0
  3  4  2  0  0  0
  4  5  1  0  0  0
  4  6  1  0  0  0
  6 28  1  0  0  0
 28 30  1  0  0  0
 30 31  2  0  0  0
 31 32  1  0  0  0
 32 33  2  0  0  0
 33 34  1  0  0  0
 34 35  2  0  0  0
 35 36  1  0  0  0
 36 37  2  0  0  0
 36 38  2  0  0  0
 36 39  1  0  0  0
 39 40  1  0  0  0
 39 41  1  0  0  0
  6  7  2  0  0  0
 13 14  2  0  0  0
 14 24  1  0  0  0
 24 25  1  0  0  0
 25 26  1  0  0  0
 25 27  1  0  0  0
 14 15  1  0  0  0
 15 16  2  0  0  0
 16 17  1  0  0  0
 17 18  1  0  0  0
 18 19  1  0  0  0
 19 20  1  0  0  0
 20 21  1  0  0  0
 21 22  1  0  0  0
 16 11  1  0  0  0
 22 17  1  0  0  0
  7  1  1  0  0  0
 35 30  1  0  0  0
  8  9  1  0  0  0
 28 29  1  0  0  0
 20 23  1  0  0  0
M  END
> <minimizedAffinity>
-9.94205

$$$$
Molecule_3


 30 33  0  0  0  0  0  0  0  0999 V2000
   -8.1536   16.6732   -6.1635 N   0  0  0  0  0  0  0  0  0  0  0  0
   -7.8820   15.3980   -6.5979 C   0  0  0  0  0  0  0  0  0  0  0  0
   -8.6967   14.6905   -7.1877 O   0  0  0  0  0  0  0  0  0  0  0  0
   -7.5220   17.0885   -5.4868 H   0  0  0  0  0  0  0  0  0  0  0  0
  -10.2782   17.0453   -4.9827 C   0  0  0  0  0  0  0  0  0  0  0  0
   -9.4773   17.2675   -6.2725 C   0  0  0  0  0  0  0  0  0  0  0  0
   -9.3250   18.7248   -6.7066 C   0  0  0  0  0  0  0  0  0  0  0  0
   -9.5802   19.7646   -5.7896 C   0  0  0  0  0  0  0  0  0  0  0  0
   -9.4407   21.0994   -6.1558 C   0  0  0  0  0  0  0  0  0  0  0  0
   -9.0302   21.4261   -7.4427 C   0  0  0  0  0  0  0  0  0  0  0  0
   -8.7412   20.4264   -8.3796 C   0  0  0  0  0  0  0  0  0  0  0  0
   -8.3120   20.7878   -9.6677 C   0  0  0  0  0  0  0  0  0  0  0  0
   -8.0042   19.8212  -10.6213 C   0  0  0  0  0  0  0  0  0  0  0  0
   -8.1175   18.4780  -10.2958 C   0  0  0  0  0  0  0  0  0  0  0  0
   -8.5453   18.1037   -9.0184 C   0  0  0  0  0  0  0  0  0  0  0  0
   -8.8760   19.0580   -8.0245 C   0  0  0  0  0  0  0  0  0  0  0  0
   -6.4654   14.9241   -6.3377 C   0  0  0  0  0  0  0  0  0  0  0  0
   -5.3970   15.0744   -7.7942 S   0  0  0  0  0  0  0  0  0  0  0  0
   -5.9725   13.7854   -8.8051 C   0  0  0  0  0  0  0  0  0  0  0  0
   -6.2428   12.5918   -8.3197 N   0  0  0  0  0  0  0  0  0  0  0  0
   -6.9376   11.8960   -9.2732 N   0  0  0  0  0  0  0  0  0  0  0  0
   -7.0652   12.6814  -10.3165 C   0  0  0  0  0  0  0  0  0  0  0  0
   -6.4119   13.8781  -10.1147 N   0  0  0  0  0  0  0  0  0  0  0  0
   -6.2805   14.9062  -11.0799 C   0  0  0  0  0  0  0  0  0  0  0  0
   -5.0803   15.6315  -11.1630 C   0  0  0  0  0  0  0  0  0  0  0  0
   -4.9378   16.6474  -12.1137 C   0  0  0  0  0  0  0  0  0  0  0  0
   -5.9892   16.9560  -12.9742 C   0  0  0  0  0  0  0  0  0  0  0  0
   -7.1906   16.2561  -12.8782 C   0  0  0  0  0  0  0  0  0  0  0  0
   -7.3341   15.2430  -11.9314 C   0  0  0  0  0  0  0  0  0  0  0  0
   -8.5395   14.6722  -11.8134 F   0  0  0  0  0  0  0  0  0  0  0  0
  5  6  1  0  0  0
  6  1  1  0  0  0
  1  2  1  0  0  0
  2  3  2  0  0  0
  2 17  1  0  0  0
 17 18  1  0  0  0
 18 19  1  0  0  0
 19 20  2  0  0  0
 20 21  1  0  0  0
 21 22  2  0  0  0
 22 23  1  0  0  0
 23 24  1  0  0  0
 24 25  2  0  0  0
 25 26  1  0  0  0
 26 27  2  0  0  0
 27 28  1  0  0  0
 28 29  2  0  0  0
 29 30  1  0  0  0
  6  7  1  0  0  0
  7  8  2  0  0  0
  8  9  1  0  0  0
  9 10  2  0  0  0
 10 11  1  0  0  0
 11 12  2  0  0  0
 12 13  1  0  0  0
 13 14  2  0  0  0
 14 15  1  0  0  0
 15 16  2  0  0  0
 23 19  1  0  0  0
 29 24  1  0  0  0
 16  7  1  0  0  0
 16 11  1  0  0  0
  1  4  1  0  0  0
M  END
> <minimizedAffinity>
-9.10356

$$$$
Molecule_4


 30 32  0  0  0  0  0  0  0  0999 V2000
   -8.8345   20.0049   -8.3170 C   0  0  0  0  0  0  0  0  0  0  0  0
   -9.0996   21.0800   -7.4549 C   0  0  0  0  0  0  0  0  0  0  0  0
   -9.4718   20.8425   -6.1290 C   0  0  0  0  0  0  0  0  0  0  0  0
   -9.5771   19.5347   -5.6563 C   0  0  0  0  0  0  0  0  0  0  0  0
   -9.2994   18.4668   -6.5150 C   0  0  0  0  0  0  0  0  0  0  0  0
   -8.9137   18.6922   -7.8393 C   0  0  0  0  0  0  0  0  0  0  0  0
   -7.9907   19.0879  -10.3914 N   0  0  0  0  0  0  0  0  0  0  0  0
   -8.4455   20.2203   -9.7401 C   0  0  0  0  0  0  0  0  0  0  0  0
   -8.5177   21.3576  -10.1867 O   0  0  0  0  0  0  0  0  0  0  0  0
   -7.8589   18.2681   -9.8188 H   0  0  0  0  0  0  0  0  0  0  0  0
   -6.6903   17.9275  -12.1010 C   0  0  0  0  0  0  0  0  0  0  0  0
   -6.2736   17.8129  -13.4425 C   0  0  0  0  0  0  0  0  0  0  0  0
   -6.7359   18.6933  -14.4169 C   0  0  0  0  0  0  0  0  0  0  0  0
   -7.6206   19.7030  -14.0646 C   0  0  0  0  0  0  0  0  0  0  0  0
   -8.0393   19.8371  -12.7382 C   0  0  0  0  0  0  0  0  0  0  0  0
   -7.5809   18.9664  -11.7414 C   0  0  0  0  0  0  0  0  0  0  0  0
   -5.1200   15.9871  -11.7565 C   0  0  0  0  0  0  0  0  0  0  0  0
   -6.1271   16.9289  -11.1122 C   0  0  0  0  0  0  0  0  0  0  0  0
   -9.4348   16.7990   -5.9260 S   0  0  0  0  0  0  0  0  0  0  0  0
   -9.8740   16.8629   -4.5492 O   0  0  0  0  0  0  0  0  0  0  0  0
  -10.1529   16.0131   -6.9060 O   0  0  0  0  0  0  0  0  0  0  0  0
   -7.8189   16.2936   -5.8853 N   0  0  0  0  0  0  0  0  0  0  0  0
   -7.5605   16.0058   -4.9412 H   0  0  0  0  0  0  0  0  0  0  0  0
   -7.3416   15.5082   -6.9703 C   0  0  0  0  0  0  0  0  0  0  0  0
   -6.0462   14.9905   -6.9343 C   0  0  0  0  0  0  0  0  0  0  0  0
   -5.5924   14.1792   -7.9758 C   0  0  0  0  0  0  0  0  0  0  0  0
   -6.4375   13.8812   -9.0455 C   0  0  0  0  0  0  0  0  0  0  0  0
   -7.7336   14.3952   -9.0672 C   0  0  0  0  0  0  0  0  0  0  0  0
   -8.7805   14.0205  -10.3809 Cl  0  0  0  0  0  0  0  0  0  0  0  0
   -8.1924   15.2070   -8.0320 C   0  0  0  0  0  0  0  0  0  0  0  0
 17 18  1  0  0  0
 18 11  1  0  0  0
 11 12  2  0  0  0
 12 13  1  0  0  0
 13 14  2  0  0  0
 14 15  1  0  0  0
 15 16  2  0  0  0
 16  7  1  0  0  0
  7  8  1  0  0  0
  8  9  2  0  0  0
  8  1  1  0  0  0
  1  2  2  0  0  0
  2  3  1  0  0  0
  3  4  2  0  0  0
  4  5  1  0  0  0
  5 19  1  0  0  0
 19 20  2  0  0  0
 19 21  2  0  0  0
 19 22  1  0  0  0
 22 24  1  0  0  0
 24 25  2  0  0  0
 25 26  1  0  0  0
 26 27  2  0  0  0
 27 28  1  0  0  0
 28 29  1  0  0  0
 28 30  2  0  0  0
  5  6  2  0  0  0
 16 11  1  0  0  0
  6  1  1  0  0  0
 30 24  1  0  0  0
  7 10  1  0  0  0
 22 23  1  0  0  0
M  END
> <minimizedAffinity>
-9.24877

$$$$
Molecule_5


 26 28  0  0  0  0  0  0  0  0999 V2000
   -9.0400   17.7253   -7.9448 N   0  0  0  0  0  0  0  0  0  0  0  0
   -9.0722   18.0753   -9.3902 C   0  0  0  0  0  0  0  0  0  0  0  0
   -7.7260   18.6563   -9.8897 C   0  0  0  0  0  0  0  0  0  0  0  0
   -6.6041   17.7265   -9.6035 N   0  0  0  0  0  0  0  0  0  0  0  0
   -6.5224   17.4208   -8.1524 C   0  0  0  0  0  0  0  0  0  0  0  0
   -7.8647   16.8859   -7.5920 C   0  0  0  0  0  0  0  0  0  0  0  0
   -6.3350   16.7378  -10.5506 C   0  0  0  0  0  0  0  0  0  0  0  0
   -5.7291   15.5308  -10.1741 C   0  0  0  0  0  0  0  0  0  0  0  0
   -5.4684   14.5221  -11.1053 C   0  0  0  0  0  0  0  0  0  0  0  0
   -5.8374   14.7401  -12.4168 C   0  0  0  0  0  0  0  0  0  0  0  0
   -5.6159   13.8033  -13.3810 O   0  0  0  0  0  0  0  0  0  0  0  0
   -6.4382   15.8564  -12.8427 N   0  0  0  0  0  0  0  0  0  0  0  0
   -6.6782   16.8102  -11.9055 C   0  0  0  0  0  0  0  0  0  0  0  0
   -5.1918   13.0405  -12.9644 H   0  0  0  0  0  0  0  0  0  0  0  0
   -9.6768   21.0549   -5.4339 C   0  0  0  0  0  0  0  0  0  0  0  0
   -9.1895   21.1226   -6.7368 C   0  0  0  0  0  0  0  0  0  0  0  0
   -8.9785   20.0575   -7.5484 N   0  0  0  0  0  0  0  0  0  0  0  0
   -9.2603   18.8177   -7.0911 C   0  0  0  0  0  0  0  0  0  0  0  0
   -9.7346   18.6422   -5.7857 C   0  0  0  0  0  0  0  0  0  0  0  0
   -9.9448   19.7655   -4.9667 C   0  0  0  0  0  0  0  0  0  0  0  0
   -9.1131   23.4977   -5.2447 C   0  0  0  0  0  0  0  0  0  0  0  0
   -9.8798   22.3234   -4.5995 C   0  0  0  0  0  0  0  0  0  0  0  0
   -9.3816   22.1939   -3.1427 C   0  0  0  0  0  0  0  0  0  0  0  0
  -11.3828   22.6716   -4.5400 C   0  0  0  0  0  0  0  0  0  0  0  0
   -9.9813   17.3420   -5.2379 C   0  0  0  0  0  0  0  0  0  0  0  0
  -10.2332   16.2877   -4.8204 N   0  0  0  0  0  0  0  0  0  0  0  0
 21 22  1  0  0  0
 22 23  1  0  0  0
 22 24  1  0  0  0
 22 15  1  0  0  0
 15 16  2  0  0  0
 16 17  1  0  0  0
 17 18  2  0  0  0
 18  1  1  0  0  0
  1  2  1  0  0  0
  2  3  1  0  0  0
  3  4  1  0  0  0
  4  7  1  0  0  0
  7  8  2  0  0  0
  8  9  1  0  0  0
  9 10  2  0  0  0
 10 11  1  0  0  0
 10 12  1  0  0  0
 12 13  2  0  0  0
  4  5  1  0  0  0
  5  6  1  0  0  0
 18 19  1  0  0  0
 19 25  1  0  0  0
 25 26  3  0  0  0
 19 20  2  0  0  0
 20 15  1  0  0  0
  6  1  1  0  0  0
 13  7  1  0  0  0
 11 14  1  0  0  0
M  END
> <minimizedAffinity>
-7.28969

$$$$
Molecule_6


 28 31  0  0  0  0  0  0  0  0999 V2000
   -9.0883   20.4232  -10.5401 O   0  0  0  0  0  0  0  0  0  0  0  0
   -8.3667   19.4851  -10.2132 C   0  0  0  0  0  0  0  0  0  0  0  0
   -7.5404   18.7917  -11.1101 N   0  0  0  0  0  0  0  0  0  0  0  0
   -7.5671   19.2400  -12.4951 C   0  0  0  0  0  0  0  0  0  0  0  0
   -6.2923   18.9415  -13.2672 C   0  0  0  0  0  0  0  0  0  0  0  0
   -5.5263   17.7540  -12.7208 C   0  0  0  0  0  0  0  0  0  0  0  0
   -4.8365   17.1776  -13.7398 F   0  0  0  0  0  0  0  0  0  0  0  0
   -4.5789   18.2086  -11.8510 F   0  0  0  0  0  0  0  0  0  0  0  0
   -6.3787   16.7268  -12.0075 C   0  0  0  0  0  0  0  0  0  0  0  0
   -7.3746   15.9915  -12.9193 C   0  0  0  0  0  0  0  0  0  0  0  0
   -7.6574   14.6768  -12.1874 C   0  0  0  0  0  0  0  0  0  0  0  0
   -6.4681   14.4591  -11.3663 N   0  0  0  0  0  0  0  0  0  0  0  0
   -5.5139   15.5593  -11.5077 C   0  0  0  0  0  0  0  0  0  0  0  0
   -7.0668   17.4278  -10.8235 C   0  0  0  0  0  0  0  0  0  0  0  0
   -8.3925   19.0681   -8.7947 C   0  0  0  0  0  0  0  0  0  0  0  0
   -7.7008   17.9260   -8.3747 C   0  0  0  0  0  0  0  0  0  0  0  0
   -7.7219   17.5620   -7.0284 C   0  0  0  0  0  0  0  0  0  0  0  0
   -8.4171   18.3481   -6.1064 C   0  0  0  0  0  0  0  0  0  0  0  0
   -9.0801   19.5012   -6.5310 C   0  0  0  0  0  0  0  0  0  0  0  0
   -9.9204   20.4717   -5.3851 Cl  0  0  0  0  0  0  0  0  0  0  0  0
   -9.0667   19.8727   -7.8722 C   0  0  0  0  0  0  0  0  0  0  0  0
   -6.1605   13.2401  -10.8016 C   0  0  0  0  0  0  0  0  0  0  0  0
   -6.4930   12.9292   -9.4706 C   0  0  0  0  0  0  0  0  0  0  0  0
   -6.1898   11.6871   -8.8939 C   0  0  0  0  0  0  0  0  0  0  0  0
   -5.5462   10.7137   -9.6450 C   0  0  0  0  0  0  0  0  0  0  0  0
   -5.2180   10.9946  -10.9611 C   0  0  0  0  0  0  0  0  0  0  0  0
   -4.6015   10.0615  -11.6993 F   0  0  0  0  0  0  0  0  0  0  0  0
   -5.5194   12.2301  -11.5342 C   0  0  0  0  0  0  0  0  0  0  0  0
  1  2  2  0  0  0
  2 15  1  0  0  0
 15 16  2  0  0  0
 16 17  1  0  0  0
 17 18  2  0  0  0
 18 19  1  0  0  0
 19 20  1  0  0  0
 19 21  2  0  0  0
  2  3  1  0  0  0
  3  4  1  0  0  0
  4  5  1  0  0  0
  5  6  1  0  0  0
  6  7  1  0  0  0
  6  8  1  0  0  0
  9  6  1  0  0  0
  9 10  1  0  0  0
 10 11  1  0  0  0
 11 12  1  0  0  0
 12 22  1  0  0  0
 22 23  2  0  0  0
 23 24  1  0  0  0
 24 25  2  0  0  0
 25 26  1  0  0  0
 26 27  1  0  0  0
 26 28  2  0  0  0
 12 13  1  0  0  0
  9 14  1  0  0  0
 21 15  1  0  0  0
 14  3  1  0  0  0
 13  9  1  0  0  0
 28 22  1  0  0  0
M  END
> <minimizedAffinity>
-8.62694

$$$$
Molecule_7


 30 32  0  0  0  0  0  0  0  0999 V2000
   -7.7166   14.0062   -9.3893 N   0  0  0  0  0  0  0  0  0  0  0  0
   -7.7758   15.0175   -8.4535 C   0  0  0  0  0  0  0  0  0  0  0  0
   -6.6128   15.0899   -7.8323 N   0  0  0  0  0  0  0  0  0  0  0  0
   -5.7872   14.1256   -8.3501 N   0  0  0  0  0  0  0  0  0  0  0  0
   -6.4576   13.4806   -9.2741 C   0  0  0  0  0  0  0  0  0  0  0  0
   -8.7124   14.1876  -11.6489 C   0  0  0  0  0  0  0  0  0  0  0  0
   -8.7835   13.5658  -10.2642 C   0  0  0  0  0  0  0  0  0  0  0  0
   -8.9723   15.8534   -8.1557 C   0  0  0  0  0  0  0  0  0  0  0  0
   -8.5751   17.2192   -8.2563 O   0  0  0  0  0  0  0  0  0  0  0  0
   -8.7592   18.0136   -7.1521 C   0  0  0  0  0  0  0  0  0  0  0  0
   -8.7642   17.5421   -5.8356 C   0  0  0  0  0  0  0  0  0  0  0  0
   -8.9928   18.4159   -4.7742 C   0  0  0  0  0  0  0  0  0  0  0  0
   -9.2317   19.7645   -5.0185 C   0  0  0  0  0  0  0  0  0  0  0  0
   -9.2391   20.2629   -6.3286 C   0  0  0  0  0  0  0  0  0  0  0  0
   -9.5051   21.7293   -6.5408 C   0  0  0  0  0  0  0  0  0  0  0  0
   -8.9701   19.3875   -7.4068 C   0  0  0  0  0  0  0  0  0  0  0  0
   -8.9602   19.9022   -8.8251 C   0  0  0  0  0  0  0  0  0  0  0  0
   -5.8572   12.1720  -10.2281 S   0  0  0  0  0  0  0  0  0  0  0  0
   -4.5720   13.0341  -11.1810 C   0  0  0  0  0  0  0  0  0  0  0  0
   -5.2289   14.0817  -12.0642 C   0  0  0  0  0  0  0  0  0  0  0  0
   -5.5880   13.8096  -13.2060 O   0  0  0  0  0  0  0  0  0  0  0  0
   -5.3593   15.3083  -11.4277 N   0  0  0  0  0  0  0  0  0  0  0  0
   -5.0528   15.3512  -10.4630 H   0  0  0  0  0  0  0  0  0  0  0  0
   -5.9092   16.4967  -11.9495 C   0  0  0  0  0  0  0  0  0  0  0  0
   -5.7554   16.9162  -13.2703 C   0  0  0  0  0  0  0  0  0  0  0  0
   -6.3357   18.1128  -13.7081 C   0  0  0  0  0  0  0  0  0  0  0  0
   -7.0693   18.9156  -12.8284 C   0  0  0  0  0  0  0  0  0  0  0  0
   -7.7165   20.1783  -13.3123 C   0  0  0  0  0  0  0  0  0  0  0  0
   -7.2349   18.4900  -11.5079 C   0  0  0  0  0  0  0  0  0  0  0  0
   -6.6557   17.2937  -11.0724 C   0  0  0  0  0  0  0  0  0  0  0  0
  6  7  1  0  0  0
  7  1  1  0  0  0
  1  2  1  0  0  0
  2  8  1  0  0  0
  8  9  1  0  0  0
  9 10  1  0  0  0
 10 11  2  0  0  0
 11 12  1  0  0  0
 12 13  2  0  0  0
 13 14  1  0  0  0
 14 15  1  0  0  0
 14 16  2  0  0  0
 16 17  1  0  0  0
  2  3  2  0  0  0
  3  4  1  0  0  0
  4  5  2  0  0  0
  5 18  1  0  0  0
 18 19  1  0  0  0
 19 20  1  0  0  0
 20 21  2  0  0  0
 20 22  1  0  0  0
 22 24  1  0  0  0
 24 25  2  0  0  0
 25 26  1  0  0  0
 26 27  2  0  0  0
 27 28  1  0  0  0
 27 29  1  0  0  0
 29 30  2  0  0  0
  5  1  1  0  0  0
 30 24  1  0  0  0
 16 10  1  0  0  0
 22 23  1  0  0  0
M  END
> <minimizedAffinity>
-7.86899

$$$$
Molecule_8


 28 31  0  0  0  0  0  0  0  0999 V2000
   -9.3305   18.0199   -4.8963 N   0  0  0  0  0  0  0  0  0  0  0  0
  -10.4106   17.2305   -4.5668 C   0  0  0  0  0  0  0  0  0  0  0  0
  -11.4734   17.1519   -5.1791 O   0  0  0  0  0  0  0  0  0  0  0  0
   -8.5539   18.0887   -4.2519 H   0  0  0  0  0  0  0  0  0  0  0  0
   -8.7358   19.5023   -8.0287 C   0  0  0  0  0  0  0  0  0  0  0  0
   -9.2008   20.7041   -7.5305 C   0  0  0  0  0  0  0  0  0  0  0  0
   -9.6808   20.5136   -5.8948 S   0  0  0  0  0  0  0  0  0  0  0  0
   -9.2175   18.8790   -5.9579 C   0  0  0  0  0  0  0  0  0  0  0  0
   -8.7486   18.4595   -7.1088 N   0  0  0  0  0  0  0  0  0  0  0  0
   -7.2193   18.8515  -11.9893 C   0  0  0  0  0  0  0  0  0  0  0  0
   -6.8045   18.0552  -10.9174 C   0  0  0  0  0  0  0  0  0  0  0  0
   -7.3116   18.2746   -9.6332 C   0  0  0  0  0  0  0  0  0  0  0  0
   -8.2367   19.2986   -9.3877 C   0  0  0  0  0  0  0  0  0  0  0  0
   -8.6514   20.0921  -10.4663 C   0  0  0  0  0  0  0  0  0  0  0  0
   -8.1448   19.8732  -11.7526 C   0  0  0  0  0  0  0  0  0  0  0  0
   -7.3739   19.4718  -14.4134 C   0  0  0  0  0  0  0  0  0  0  0  0
   -6.6540   18.6325  -13.3694 C   0  0  0  0  0  0  0  0  0  0  0  0
  -10.1868   16.3534   -3.3290 C   0  0  0  0  0  0  0  0  0  0  0  0
  -11.3879   16.4366   -2.3928 C   0  0  0  0  0  0  0  0  0  0  0  0
   -9.8670   14.6318   -3.8494 S   0  0  0  0  0  0  0  0  0  0  0  0
   -8.9857   14.8733   -5.3259 C   0  0  0  0  0  0  0  0  0  0  0  0
   -9.4753   14.5960   -6.5156 N   0  0  0  0  0  0  0  0  0  0  0  0
   -8.4957   14.9176   -7.4323 N   0  0  0  0  0  0  0  0  0  0  0  0
   -7.4723   15.3702   -6.7392 C   0  0  0  0  0  0  0  0  0  0  0  0
   -7.7107   15.3690   -5.3906 O   0  0  0  0  0  0  0  0  0  0  0  0
   -6.1325   15.8534   -7.3639 C   0  0  0  0  0  0  0  0  0  0  0  0
   -5.6263   15.2356   -8.6416 C   0  0  0  0  0  0  0  0  0  0  0  0
   -4.9446   14.9257   -7.3397 C   0  0  0  0  0  0  0  0  0  0  0  0
 16 17  1  0  0  0
 17 10  1  0  0  0
 10 11  2  0  0  0
 11 12  1  0  0  0
 12 13  2  0  0  0
 13  5  1  0  0  0
  5  6  2  0  0  0
  6  7  1  0  0  0
  7  8  1  0  0  0
  8  1  1  0  0  0
  1  2  1  0  0  0
  2  3  2  0  0  0
  2 18  1  0  0  0
 18 19  1  0  0  0
 18 20  1  0  0  0
 20 21  1  0  0  0
 21 22  2  0  0  0
 22 23  1  0  0  0
 23 24  2  0  0  0
 24 26  1  0  0  0
 26 27  1  0  0  0
 27 28  1  0  0  0
 24 25  1  0  0  0
  8  9  2  0  0  0
 13 14  1  0  0  0
 14 15  2  0  0  0
 15 10  1  0  0  0
  9  5  1  0  0  0
 25 21  1  0  0  0
 28 26  1  0  0  0
  1  4  1  0  0  0
M  END
> <minimizedAffinity>
-8.08743

$$$$
Molecule_9


 29 31  0  0  0  0  0  0  0  0999 V2000
   -6.2049   16.4716   -7.4168 C   0  0  0  0  0  0  0  0  0  0  0  0
   -6.5257   16.8335   -8.8412 C   0  0  0  0  0  0  0  0  0  0  0  0
   -6.0036   15.9869   -9.7566 N   0  0  0  0  0  0  0  0  0  0  0  0
   -6.2632   16.2522  -11.0422 C   0  0  0  0  0  0  0  0  0  0  0  0
   -6.9871   17.2901  -11.4731 N   0  0  0  0  0  0  0  0  0  0  0  0
   -7.4972   18.1406  -10.5424 C   0  0  0  0  0  0  0  0  0  0  0  0
   -8.1651   19.3323  -11.1581 C   0  0  0  0  0  0  0  0  0  0  0  0
   -7.3291   17.9351   -9.1719 C   0  0  0  0  0  0  0  0  0  0  0  0
   -7.8317   18.7375   -8.1165 N   0  0  0  0  0  0  0  0  0  0  0  0
   -9.0087   18.6184   -7.4057 C   0  0  0  0  0  0  0  0  0  0  0  0
   -9.8324   17.7174   -7.5004 O   0  0  0  0  0  0  0  0  0  0  0  0
   -7.1898   19.4120   -7.7114 H   0  0  0  0  0  0  0  0  0  0  0  0
   -9.1929   19.7332   -6.3644 C   0  0  0  0  0  0  0  0  0  0  0  0
   -9.7343   20.9484   -6.8744 O   0  0  0  0  0  0  0  0  0  0  0  0
   -9.6131   22.0774   -6.1115 C   0  0  0  0  0  0  0  0  0  0  0  0
   -9.9385   21.9021   -4.7619 C   0  0  0  0  0  0  0  0  0  0  0  0
   -9.8342   22.9632   -3.8596 C   0  0  0  0  0  0  0  0  0  0  0  0
   -9.3994   24.2059   -4.3095 C   0  0  0  0  0  0  0  0  0  0  0  0
   -9.2638   25.5165   -3.2020 Cl  0  0  0  0  0  0  0  0  0  0  0  0
   -9.0699   24.3912   -5.6520 C   0  0  0  0  0  0  0  0  0  0  0  0
   -9.1741   23.3267   -6.5538 C   0  0  0  0  0  0  0  0  0  0  0  0
   -5.8008   15.4041  -12.0409 O   0  0  0  0  0  0  0  0  0  0  0  0
   -6.1350   14.0813  -11.9076 C   0  0  0  0  0  0  0  0  0  0  0  0
   -5.1855   13.1899  -11.4054 C   0  0  0  0  0  0  0  0  0  0  0  0
   -5.5199   11.8425  -11.2447 C   0  0  0  0  0  0  0  0  0  0  0  0
   -6.7999   11.3939  -11.5792 C   0  0  0  0  0  0  0  0  0  0  0  0
   -7.7576   12.2951  -12.0502 C   0  0  0  0  0  0  0  0  0  0  0  0
   -7.4232   13.6369  -12.2030 C   0  0  0  0  0  0  0  0  0  0  0  0
   -8.3556   14.4961  -12.6411 F   0  0  0  0  0  0  0  0  0  0  0  0
  1  2  1  0  0  0
  2  3  2  0  0  0
  3  4  1  0  0  0
  4 22  1  0  0  0
 22 23  1  0  0  0
 23 24  2  0  0  0
 24 25  1  0  0  0
 25 26  2  0  0  0
 26 27  1  0  0  0
 27 28  2  0  0  0
 28 29  1  0  0  0
  4  5  2  0  0  0
  5  6  1  0  0  0
  6  7  1  0  0  0
  6  8  2  0  0  0
  8  9  1  0  0  0
  9 10  1  0  0  0
 10 11  2  0  0  0
 10 13  1  0  0  0
 13 14  1  0  0  0
 14 15  1  0  0  0
 15 16  2  0  0  0
 16 17  1  0  0  0
 17 18  2  0  0  0
 18 19  1  0  0  0
 18 20  1  0  0  0
 20 21  2  0  0  0
  8  2  1  0  0  0
 21 15  1  0  0  0
 28 23  1  0  0  0
  9 12  1  0  0  0
M  END
> <minimizedAffinity>
-8.00171

$$$$
