Molecule_0


 44 48  0  0  0  0  0  0  0  0999 V2000
   -8.5118   19.5250  -10.3508 C   0  0  0  0  0  0  0  0  0  0  0  0
   -7.6841   18.4634  -10.0716 N   0  0  0  0  0  0  0  0  0  0  0  0
   -6.8476   17.9434  -11.0127 C   0  0  0  0  0  0  0  0  0  0  0  0
   -7.0020   18.5578  -12.2521 C   0  0  0  0  0  0  0  0  0  0  0  0
   -6.4133   18.2594  -13.4531 C   0  0  0  0  0  0  0  0  0  0  0  0
   -6.9309   19.1729  -14.3312 N   0  0  0  0  0  0  0  0  0  0  0  0
   -7.8273   20.0137  -13.7844 N   0  0  0  0  0  0  0  0  0  0  0  0
   -7.8836   19.6318  -12.5049 C   0  0  0  0  0  0  0  0  0  0  0  0
   -8.6585   20.1557  -11.5394 N   0  0  0  0  0  0  0  0  0  0  0  0
   -6.7215   19.2766  -15.3190 H   0  0  0  0  0  0  0  0  0  0  0  0
   -9.2122   19.9692   -9.2264 N   0  0  0  0  0  0  0  0  0  0  0  0
  -10.0971   20.3599   -9.5233 H   0  0  0  0  0  0  0  0  0  0  0  0
   -9.1950   20.4309   -6.8490 C   0  0  0  0  0  0  0  0  0  0  0  0
   -9.1407   20.0225   -5.5148 C   0  0  0  0  0  0  0  0  0  0  0  0
   -9.1494   18.6622   -5.1716 C   0  0  0  0  0  0  0  0  0  0  0  0
   -9.2184   17.7150   -6.2173 C   0  0  0  0  0  0  0  0  0  0  0  0
   -9.2354   16.2304   -5.9551 C   0  0  0  0  0  0  0  0  0  0  0  0
   -9.2378   18.1507   -7.5617 C   0  0  0  0  0  0  0  0  0  0  0  0
   -9.2104   19.5051   -7.9014 C   0  0  0  0  0  0  0  0  0  0  0  0
   -9.1358   18.2411   -3.7064 C   0  0  0  0  0  0  0  0  0  0  0  0
  -10.5685   18.1461   -3.1456 C   0  0  0  0  0  0  0  0  0  0  0  0
  -10.6855   18.6871   -1.7179 C   0  0  0  0  0  0  0  0  0  0  0  0
   -9.6019   18.2729   -0.8250 N   0  0  0  0  0  0  0  0  0  0  0  0
   -9.7501   16.8910   -0.3786 C   0  0  0  0  0  0  0  0  0  0  0  0
   -8.2601   18.5291   -1.3691 C   0  0  0  0  0  0  0  0  0  0  0  0
   -8.2467   19.1013   -2.7908 C   0  0  0  0  0  0  0  0  0  0  0  0
   -9.1625   21.7824   -7.0970 O   0  0  0  0  0  0  0  0  0  0  0  0
   -8.6808   23.9261   -6.0288 C   0  0  0  0  0  0  0  0  0  0  0  0
   -9.3704   22.5692   -5.9079 C   0  0  0  0  0  0  0  0  0  0  0  0
  -10.8806   22.7533   -5.7814 C   0  0  0  0  0  0  0  0  0  0  0  0
   -6.0231   16.8729  -10.6580 N   0  0  0  0  0  0  0  0  0  0  0  0
   -5.8482   16.3045  -11.4945 H   0  0  0  0  0  0  0  0  0  0  0  0
   -5.9992   16.0870   -9.4865 C   0  0  0  0  0  0  0  0  0  0  0  0
   -5.8181   16.6566   -8.2163 C   0  0  0  0  0  0  0  0  0  0  0  0
   -5.7771   15.8683   -7.0611 C   0  0  0  0  0  0  0  0  0  0  0  0
   -5.9245   14.4885   -7.1473 C   0  0  0  0  0  0  0  0  0  0  0  0
   -6.1198   13.8942   -8.3903 C   0  0  0  0  0  0  0  0  0  0  0  0
   -6.1512   14.6884   -9.5470 C   0  0  0  0  0  0  0  0  0  0  0  0
   -6.4436   13.8848  -11.1119 S   0  0  0  0  0  0  0  0  0  0  0  0
   -6.3922   12.4564  -10.8476 O   0  0  0  0  0  0  0  0  0  0  0  0
   -5.5429   14.4771  -12.0851 O   0  0  0  0  0  0  0  0  0  0  0  0
   -8.1286   14.3248  -11.5602 C   0  0  0  0  0  0  0  0  0  0  0  0
   -9.0312   14.2296  -10.3314 C   0  0  0  0  0  0  0  0  0  0  0  0
   -8.6683   13.4491  -12.6848 C   0  0  0  0  0  0  0  0  0  0  0  0
 28 29  1  0  0  0
 29 30  1  0  0  0
 29 27  1  0  0  0
 27 13  1  0  0  0
 13 14  2  0  0  0
 14 15  1  0  0  0
 15 20  1  0  0  0
 20 21  1  0  0  0
 21 22  1  0  0  0
 22 23  1  0  0  0
 23 24  1  0  0  0
 23 25  1  0  0  0
 25 26  1  0  0  0
 15 16  2  0  0  0
 16 17  1  0  0  0
 16 18  1  0  0  0
 18 19  2  0  0  0
 19 11  1  0  0  0
 11  1  1  0  0  0
  1  2  1  0  0  0
  2  3  2  0  0  0
  3 31  1  0  0  0
 31 33  1  0  0  0
 33 34  2  0  0  0
 34 35  1  0  0  0
 35 36  2  0  0  0
 36 37  1  0  0  0
 37 38  2  0  0  0
 38 39  1  0  0  0
 39 40  2  0  0  0
 39 41  2  0  0  0
 39 42  1  0  0  0
 42 43  1  0  0  0
 42 44  1  0  0  0
  3  4  1  0  0  0
  4  5  2  0  0  0
  5  6  1  0  0  0
  6  7  1  0  0  0
  7  8  2  0  0  0
  8  9  1  0  0  0
 19 13  1  0  0  0
 26 20  1  0  0  0
  9  1  2  0  0  0
 38 33  1  0  0  0
  8  4  1  0  0  0
 11 12  1  0  0  0
 31 32  1  0  0  0
  6 10  1  0  0  0
M  END
> <minimizedAffinity>
-9.90908

$$$$
Molecule_1


 44 47  0  0  0  0  0  0  0  0999 V2000
   -9.7286   19.9727   -7.8438 N   0  0  0  0  0  0  0  0  0  0  0  0
  -10.5986   19.4549   -7.8554 H   0  0  0  0  0  0  0  0  0  0  0  0
   -8.9452   24.5648   -6.1224 C   0  0  0  0  0  0  0  0  0  0  0  0
   -9.2564   23.1181   -5.8417 C   0  0  0  0  0  0  0  0  0  0  0  0
   -9.3464   22.2358   -6.9371 C   0  0  0  0  0  0  0  0  0  0  0  0
   -9.6106   20.8729   -6.7729 C   0  0  0  0  0  0  0  0  0  0  0  0
   -9.8102   20.3885   -5.4652 C   0  0  0  0  0  0  0  0  0  0  0  0
   -9.7204   21.2532   -4.3697 C   0  0  0  0  0  0  0  0  0  0  0  0
   -9.4358   22.6233   -4.5334 C   0  0  0  0  0  0  0  0  0  0  0  0
   -9.3580   23.5284   -3.3079 C   0  0  0  0  0  0  0  0  0  0  0  0
  -10.7499   24.0165   -2.8855 C   0  0  0  0  0  0  0  0  0  0  0  0
  -10.6681   24.9168   -1.6507 C   0  0  0  0  0  0  0  0  0  0  0  0
   -9.9991   24.2373   -0.5306 N   0  0  0  0  0  0  0  0  0  0  0  0
   -8.6355   23.8260   -0.9099 C   0  0  0  0  0  0  0  0  0  0  0  0
   -8.6492   22.8776   -2.1102 C   0  0  0  0  0  0  0  0  0  0  0  0
   -9.9354   25.0951    0.6717 C   0  0  0  0  0  0  0  0  0  0  0  0
   -8.6090   25.8478    0.8486 C   0  0  0  0  0  0  0  0  0  0  0  0
   -8.4939   26.2979    2.1973 O   0  0  0  0  0  0  0  0  0  0  0  0
   -7.6546   26.7844    2.2607 H   0  0  0  0  0  0  0  0  0  0  0  0
  -10.0483   19.0371   -5.3728 O   0  0  0  0  0  0  0  0  0  0  0  0
  -10.4525   18.4998   -4.1088 C   0  0  0  0  0  0  0  0  0  0  0  0
  -11.6178   17.5533   -4.3884 C   0  0  0  0  0  0  0  0  0  0  0  0
   -9.2932   17.7269   -3.4898 C   0  0  0  0  0  0  0  0  0  0  0  0
   -8.9452   19.6545   -8.9427 C   0  0  0  0  0  0  0  0  0  0  0  0
   -8.6180   20.5675   -9.8644 N   0  0  0  0  0  0  0  0  0  0  0  0
   -7.8919   20.1406  -10.9166 C   0  0  0  0  0  0  0  0  0  0  0  0
   -7.4759   18.8413  -11.0967 C   0  0  0  0  0  0  0  0  0  0  0  0
   -6.6029   18.4498  -12.5229 Cl  0  0  0  0  0  0  0  0  0  0  0  0
   -7.8348   17.9612  -10.0880 C   0  0  0  0  0  0  0  0  0  0  0  0
   -8.5827   18.3639   -9.0348 N   0  0  0  0  0  0  0  0  0  0  0  0
   -7.5349   16.5775  -10.0610 N   0  0  0  0  0  0  0  0  0  0  0  0
   -8.4707   16.1552  -10.1086 H   0  0  0  0  0  0  0  0  0  0  0  0
   -6.7367   15.9142   -9.1009 C   0  0  0  0  0  0  0  0  0  0  0  0
   -5.9942   16.7231   -8.2232 C   0  0  0  0  0  0  0  0  0  0  0  0
   -5.2357   16.1675   -7.1931 C   0  0  0  0  0  0  0  0  0  0  0  0
   -5.2126   14.7886   -7.0171 C   0  0  0  0  0  0  0  0  0  0  0  0
   -5.9239   13.9626   -7.8883 C   0  0  0  0  0  0  0  0  0  0  0  0
   -6.6592   14.5188   -8.9461 C   0  0  0  0  0  0  0  0  0  0  0  0
   -7.4662   13.4514  -10.1205 S   0  0  0  0  0  0  0  0  0  0  0  0
   -7.4254   12.1254   -9.5313 O   0  0  0  0  0  0  0  0  0  0  0  0
   -8.7290   14.0887  -10.4589 O   0  0  0  0  0  0  0  0  0  0  0  0
   -6.4881   13.4242  -11.6263 C   0  0  0  0  0  0  0  0  0  0  0  0
   -5.0290   13.7921  -11.3722 C   0  0  0  0  0  0  0  0  0  0  0  0
   -7.0947   14.3830  -12.6520 C   0  0  0  0  0  0  0  0  0  0  0  0
  3  4  1  0  0  0
  4  5  2  0  0  0
  5  6  1  0  0  0
  6  1  1  0  0  0
  1 24  1  0  0  0
 24 25  2  0  0  0
 25 26  1  0  0  0
 26 27  2  0  0  0
 27 28  1  0  0  0
 27 29  1  0  0  0
 29 31  1  0  0  0
 31 33  1  0  0  0
 33 34  2  0  0  0
 34 35  1  0  0  0
 35 36  2  0  0  0
 36 37  1  0  0  0
 37 38  2  0  0  0
 38 39  1  0  0  0
 39 40  2  0  0  0
 39 41  2  0  0  0
 39 42  1  0  0  0
 42 43  1  0  0  0
 42 44  1  0  0  0
 29 30  2  0  0  0
  6  7  2  0  0  0
  7 20  1  0  0  0
 20 21  1  0  0  0
 21 22  1  0  0  0
 21 23  1  0  0  0
  7  8  1  0  0  0
  8  9  2  0  0  0
  9 10  1  0  0  0
 10 11  1  0  0  0
 11 12  1  0  0  0
 12 13  1  0  0  0
 13 16  1  0  0  0
 16 17  1  0  0  0
 17 18  1  0  0  0
 13 14  1  0  0  0
 14 15  1  0  0  0
  9  4  1  0  0  0
 15 10  1  0  0  0
 30 24  1  0  0  0
 38 33  1  0  0  0
  1  2  1  0  0  0
 31 32  1  0  0  0
 18 19  1  0  0  0
M  END
> <minimizedAffinity>
-8.47390

$$$$
Molecule_2


 41 44  0  0  0  0  0  0  0  0999 V2000
   -8.6265   19.6372  -10.2604 C   0  0  0  0  0  0  0  0  0  0  0  0
   -8.5632   20.3905  -11.3679 N   0  0  0  0  0  0  0  0  0  0  0  0
   -7.7950   19.9311  -12.3769 C   0  0  0  0  0  0  0  0  0  0  0  0
   -7.0829   18.7565  -12.3232 C   0  0  0  0  0  0  0  0  0  0  0  0
   -6.1017   18.2650  -13.6445 Cl  0  0  0  0  0  0  0  0  0  0  0  0
   -7.2290   18.0169  -11.1616 C   0  0  0  0  0  0  0  0  0  0  0  0
   -7.9968   18.4598  -10.1403 N   0  0  0  0  0  0  0  0  0  0  0  0
   -9.2931   20.0604   -9.1187 N   0  0  0  0  0  0  0  0  0  0  0  0
  -10.1260   20.5737   -9.3717 H   0  0  0  0  0  0  0  0  0  0  0  0
   -9.0037   16.3617   -5.8748 C   0  0  0  0  0  0  0  0  0  0  0  0
   -9.1051   17.8454   -6.0946 C   0  0  0  0  0  0  0  0  0  0  0  0
   -9.1989   18.2757   -7.4395 C   0  0  0  0  0  0  0  0  0  0  0  0
   -9.2511   19.6238   -7.7912 C   0  0  0  0  0  0  0  0  0  0  0  0
   -9.2982   20.5595   -6.7523 C   0  0  0  0  0  0  0  0  0  0  0  0
   -9.2054   20.1632   -5.4176 C   0  0  0  0  0  0  0  0  0  0  0  0
   -9.1188   18.8014   -5.0545 C   0  0  0  0  0  0  0  0  0  0  0  0
   -9.0051   18.5104   -3.5597 C   0  0  0  0  0  0  0  0  0  0  0  0
   -8.1236   19.4680   -2.7417 C   0  0  0  0  0  0  0  0  0  0  0  0
   -8.0592   19.0192   -1.2813 C   0  0  0  0  0  0  0  0  0  0  0  0
   -9.3964   18.9201   -0.6925 N   0  0  0  0  0  0  0  0  0  0  0  0
  -10.2296   17.9667   -1.4259 C   0  0  0  0  0  0  0  0  0  0  0  0
  -10.3828   18.3452   -2.8985 C   0  0  0  0  0  0  0  0  0  0  0  0
   -9.8426   19.8381   -0.7256 H   0  0  0  0  0  0  0  0  0  0  0  0
   -9.3946   21.9061   -7.0268 O   0  0  0  0  0  0  0  0  0  0  0  0
   -9.3806   22.6885   -5.8126 C   0  0  0  0  0  0  0  0  0  0  0  0
  -10.8074   23.1776   -5.5624 C   0  0  0  0  0  0  0  0  0  0  0  0
   -8.4402   23.8808   -5.9858 C   0  0  0  0  0  0  0  0  0  0  0  0
   -6.5225   16.7831  -11.0172 N   0  0  0  0  0  0  0  0  0  0  0  0
   -5.7371   16.8280  -11.6816 H   0  0  0  0  0  0  0  0  0  0  0  0
   -6.1432   16.1746   -9.7949 C   0  0  0  0  0  0  0  0  0  0  0  0
   -6.0149   16.9559   -8.6317 C   0  0  0  0  0  0  0  0  0  0  0  0
   -5.6646   16.3931   -7.3975 C   0  0  0  0  0  0  0  0  0  0  0  0
   -5.4306   15.0274   -7.2990 C   0  0  0  0  0  0  0  0  0  0  0  0
   -5.5959   14.2188   -8.4222 C   0  0  0  0  0  0  0  0  0  0  0  0
   -5.9981   14.7828   -9.6456 C   0  0  0  0  0  0  0  0  0  0  0  0
   -6.2396   13.6691  -11.0167 S   0  0  0  0  0  0  0  0  0  0  0  0
   -5.7183   14.3329  -12.2009 O   0  0  0  0  0  0  0  0  0  0  0  0
   -5.7020   12.3775  -10.6271 O   0  0  0  0  0  0  0  0  0  0  0  0
   -8.0125   13.4974  -11.2107 C   0  0  0  0  0  0  0  0  0  0  0  0
   -8.5074   14.0070  -12.5596 C   0  0  0  0  0  0  0  0  0  0  0  0
   -8.7939   14.1337  -10.0683 C   0  0  0  0  0  0  0  0  0  0  0  0
 10 11  1  0  0  0
 11 12  2  0  0  0
 12 13  1  0  0  0
 13  8  1  0  0  0
  8  1  1  0  0  0
  1  2  2  0  0  0
  2  3  1  0  0  0
  3  4  2  0  0  0
  4  5  1  0  0  0
  4  6  1  0  0  0
  6 28  1  0  0  0
 28 30  1  0  0  0
 30 31  2  0  0  0
 31 32  1  0  0  0
 32 33  2  0  0  0
 33 34  1  0  0  0
 34 35  2  0  0  0
 35 36  1  0  0  0
 36 37  2  0  0  0
 36 38  2  0  0  0
 36 39  1  0  0  0
 39 40  1  0  0  0
 39 41  1  0  0  0
  6  7  2  0  0  0
 13 14  2  0  0  0
 14 24  1  0  0  0
 24 25  1  0  0  0
 25 26  1  0  0  0
 25 27  1  0  0  0
 14 15  1  0  0  0
 15 16  2  0  0  0
 16 17  1  0  0  0
 17 18  1  0  0  0
 18 19  1  0  0  0
 19 20  1  0  0  0
 20 21  1  0  0  0
 21 22  1  0  0  0
 16 11  1  0  0  0
 22 17  1  0  0  0
  7  1  1  0  0  0
 35 30  1  0  0  0
  8  9  1  0  0  0
 28 29  1  0  0  0
 20 23  1  0  0  0
M  END
> <minimizedAffinity>
-9.59604

$$$$
Molecule_3


 32 35  0  0  0  0  0  0  0  0999 V2000
   -7.3874   14.8751   -6.7493 O   0  0  0  0  0  0  0  0  0  0  0  0
   -8.2280   15.1379   -7.6014 C   0  0  0  0  0  0  0  0  0  0  0  0
   -7.9880   15.0600   -8.9546 N   0  0  0  0  0  0  0  0  0  0  0  0
   -8.7009   15.3560   -9.6092 H   0  0  0  0  0  0  0  0  0  0  0  0
   -9.6442   15.5675   -7.2787 C   0  0  0  0  0  0  0  0  0  0  0  0
   -9.7370   16.9872   -6.7194 C   0  0  0  0  0  0  0  0  0  0  0  0
   -9.9130   17.0739   -5.1986 C   0  0  0  0  0  0  0  0  0  0  0  0
   -8.8968   17.8985   -4.5489 N   0  0  0  0  0  0  0  0  0  0  0  0
   -8.0335   17.9310   -5.0789 H   0  0  0  0  0  0  0  0  0  0  0  0
   -9.1835   19.0729   -3.8423 C   0  0  0  0  0  0  0  0  0  0  0  0
   -9.2334   19.0901   -2.4471 C   0  0  0  0  0  0  0  0  0  0  0  0
   -9.4967   20.2770   -1.7914 C   0  0  0  0  0  0  0  0  0  0  0  0
   -9.6918   21.4521   -2.4146 N   0  0  0  0  0  0  0  0  0  0  0  0
   -9.5883   21.4754   -3.7491 C   0  0  0  0  0  0  0  0  0  0  0  0
   -9.7514   22.7014   -4.3759 C   0  0  0  0  0  0  0  0  0  0  0  0
   -9.6398   22.8294   -5.7566 C   0  0  0  0  0  0  0  0  0  0  0  0
   -9.8470   24.3690   -6.4958 Cl  0  0  0  0  0  0  0  0  0  0  0  0
   -9.3550   21.7222   -6.5400 C   0  0  0  0  0  0  0  0  0  0  0  0
   -9.1922   20.4785   -5.9294 C   0  0  0  0  0  0  0  0  0  0  0  0
   -9.3162   20.3199   -4.5248 C   0  0  0  0  0  0  0  0  0  0  0  0
   -6.6799   14.7181   -9.4846 C   0  0  0  0  0  0  0  0  0  0  0  0
   -5.7545   15.9346   -9.5519 C   0  0  0  0  0  0  0  0  0  0  0  0
   -6.0795   16.8267  -10.7300 C   0  0  0  0  0  0  0  0  0  0  0  0
   -5.5102   16.5333  -11.9823 C   0  0  0  0  0  0  0  0  0  0  0  0
   -5.7944   17.3249  -13.0886 C   0  0  0  0  0  0  0  0  0  0  0  0
   -6.6519   18.4115  -12.9532 C   0  0  0  0  0  0  0  0  0  0  0  0
   -7.2327   18.7081  -11.7093 C   0  0  0  0  0  0  0  0  0  0  0  0
   -8.1031   19.7961  -11.5611 C   0  0  0  0  0  0  0  0  0  0  0  0
   -8.6687   20.0678  -10.3230 C   0  0  0  0  0  0  0  0  0  0  0  0
   -8.3440   19.2368   -9.2704 C   0  0  0  0  0  0  0  0  0  0  0  0
   -7.5103   18.1783   -9.3745 N   0  0  0  0  0  0  0  0  0  0  0  0
   -6.9531   17.9114  -10.5754 C   0  0  0  0  0  0  0  0  0  0  0  0
  1  2  2  0  0  0
  2  5  1  0  0  0
  5  6  1  0  0  0
  6  7  1  0  0  0
  7  8  1  0  0  0
  8 10  1  0  0  0
 10 11  2  0  0  0
 11 12  1  0  0  0
 12 13  2  0  0  0
 13 14  1  0  0  0
 14 15  2  0  0  0
 15 16  1  0  0  0
 16 17  1  0  0  0
 16 18  2  0  0  0
 18 19  1  0  0  0
 19 20  2  0  0  0
  2  3  1  0  0  0
  3 21  1  0  0  0
 21 22  1  0  0  0
 22 23  1  0  0  0
 23 24  2  0  0  0
 24 25  1  0  0  0
 25 26  2  0  0  0
 26 27  1  0  0  0
 27 28  2  0  0  0
 28 29  1  0  0  0
 29 30  2  0  0  0
 30 31  1  0  0  0
 31 32  2  0  0  0
 20 10  1  0  0  0
 32 23  1  0  0  0
 20 14  1  0  0  0
 32 27  1  0  0  0
  8  9  1  0  0  0
  3  4  1  0  0  0
M  END
> <minimizedAffinity>
-8.09550

$$$$
Molecule_4


 32 34  0  0  0  0  0  0  0  0999 V2000
   -7.4178   17.1914  -10.1048 C   0  0  0  0  0  0  0  0  0  0  0  0
   -7.5839   14.6909  -10.8743 C   0  0  0  0  0  0  0  0  0  0  0  0
   -7.3523   13.3322  -10.5543 C   0  0  0  0  0  0  0  0  0  0  0  0
   -6.8259   12.9363   -9.3208 C   0  0  0  0  0  0  0  0  0  0  0  0
   -6.5044   13.9135   -8.3705 C   0  0  0  0  0  0  0  0  0  0  0  0
   -6.7175   15.2610   -8.6789 C   0  0  0  0  0  0  0  0  0  0  0  0
   -7.2581   15.6794   -9.9194 C   0  0  0  0  0  0  0  0  0  0  0  0
   -9.0718   13.8567  -12.7474 C   0  0  0  0  0  0  0  0  0  0  0  0
   -8.1568   14.9694  -12.2477 C   0  0  0  0  0  0  0  0  0  0  0  0
   -6.5912   11.6342   -8.9556 O   0  0  0  0  0  0  0  0  0  0  0  0
   -5.6323   10.8997   -9.7015 C   0  0  0  0  0  0  0  0  0  0  0  0
   -5.9901   13.4583   -7.1815 O   0  0  0  0  0  0  0  0  0  0  0  0
   -6.0254   14.3402   -6.0684 C   0  0  0  0  0  0  0  0  0  0  0  0
   -7.6517   17.8378   -8.8165 N   0  0  0  0  0  0  0  0  0  0  0  0
   -8.6527   18.7705   -8.6437 C   0  0  0  0  0  0  0  0  0  0  0  0
   -9.2990   19.2551   -9.5649 O   0  0  0  0  0  0  0  0  0  0  0  0
   -7.1171   17.5304   -8.0196 H   0  0  0  0  0  0  0  0  0  0  0  0
   -8.9035   19.2179   -7.2459 C   0  0  0  0  0  0  0  0  0  0  0  0
   -8.5894   18.3419   -6.1997 C   0  0  0  0  0  0  0  0  0  0  0  0
   -8.8032   18.7188   -4.8685 C   0  0  0  0  0  0  0  0  0  0  0  0
   -9.3251   19.9787   -4.5736 C   0  0  0  0  0  0  0  0  0  0  0  0
   -9.6223   20.8588   -5.6187 C   0  0  0  0  0  0  0  0  0  0  0  0
   -9.4084   20.4883   -6.9498 C   0  0  0  0  0  0  0  0  0  0  0  0
   -9.5832   20.4710   -3.3243 O   0  0  0  0  0  0  0  0  0  0  0  0
  -10.4355   21.6072   -3.2447 C   0  0  0  0  0  0  0  0  0  0  0  0
   -6.2750   17.8678  -10.8951 C   0  0  0  0  0  0  0  0  0  0  0  0
   -6.7091   18.3733  -12.2535 C   0  0  0  0  0  0  0  0  0  0  0  0
   -6.3502   17.6748  -13.4148 C   0  0  0  0  0  0  0  0  0  0  0  0
   -6.7286   18.1489  -14.6718 C   0  0  0  0  0  0  0  0  0  0  0  0
   -7.4638   19.3272  -14.7811 C   0  0  0  0  0  0  0  0  0  0  0  0
   -7.8198   20.0330  -13.6340 C   0  0  0  0  0  0  0  0  0  0  0  0
   -7.4449   19.5592  -12.3760 C   0  0  0  0  0  0  0  0  0  0  0  0
  8  9  1  0  0  0
  9  2  1  0  0  0
  2  3  2  0  0  0
  3  4  1  0  0  0
  4 10  1  0  0  0
 10 11  1  0  0  0
  4  5  2  0  0  0
  5 12  1  0  0  0
 12 13  1  0  0  0
  5  6  1  0  0  0
  6  7  2  0  0  0
  7  1  1  0  0  0
  1 26  1  0  0  0
 26 27  1  0  0  0
 27 28  2  0  0  0
 28 29  1  0  0  0
 29 30  2  0  0  0
 30 31  1  0  0  0
 31 32  2  0  0  0
  1 14  1  0  0  0
 14 15  1  0  0  0
 15 16  2  0  0  0
 15 18  1  0  0  0
 18 19  2  0  0  0
 19 20  1  0  0  0
 20 21  2  0  0  0
 21 24  1  0  0  0
 24 25  1  0  0  0
 21 22  1  0  0  0
 22 23  2  0  0  0
  7  2  1  0  0  0
 32 27  1  0  0  0
 23 18  1  0  0  0
 14 17  1  0  0  0
M  END
> <minimizedAffinity>
-8.26531

$$$$
Molecule_5


 29 32  0  0  0  0  0  0  0  0999 V2000
  -10.8802   16.8219   -3.8696 C   0  0  0  0  0  0  0  0  0  0  0  0
  -11.9027   17.0142   -4.6709 N   0  0  0  0  0  0  0  0  0  0  0  0
  -11.8660   18.3208   -5.0845 N   0  0  0  0  0  0  0  0  0  0  0  0
  -10.8222   18.9013   -4.5223 C   0  0  0  0  0  0  0  0  0  0  0  0
  -10.1660   17.9802   -3.7374 N   0  0  0  0  0  0  0  0  0  0  0  0
   -8.9830   18.2218   -2.9523 C   0  0  0  0  0  0  0  0  0  0  0  0
  -10.4630   20.2718   -4.7192 C   0  0  0  0  0  0  0  0  0  0  0  0
   -9.7946   20.8255   -5.8006 C   0  0  0  0  0  0  0  0  0  0  0  0
   -9.6634   22.2161   -5.5576 C   0  0  0  0  0  0  0  0  0  0  0  0
   -9.1041   23.3104   -6.2397 C   0  0  0  0  0  0  0  0  0  0  0  0
   -9.1791   24.5795   -5.6479 C   0  0  0  0  0  0  0  0  0  0  0  0
   -9.7946   24.7606   -4.4062 C   0  0  0  0  0  0  0  0  0  0  0  0
  -10.3557   23.6829   -3.7131 C   0  0  0  0  0  0  0  0  0  0  0  0
  -10.2652   22.4364   -4.3274 C   0  0  0  0  0  0  0  0  0  0  0  0
  -10.7457   21.2696   -3.8208 O   0  0  0  0  0  0  0  0  0  0  0  0
  -10.4901   15.3319   -3.0906 S   0  0  0  0  0  0  0  0  0  0  0  0
   -8.8958   14.9385   -3.8655 C   0  0  0  0  0  0  0  0  0  0  0  0
   -8.0376   16.3366   -5.6639 N   0  0  0  0  0  0  0  0  0  0  0  0
   -8.9091   15.3075   -5.3411 C   0  0  0  0  0  0  0  0  0  0  0  0
   -9.6442   14.7068   -6.1216 O   0  0  0  0  0  0  0  0  0  0  0  0
   -7.6336   16.8347   -4.8721 H   0  0  0  0  0  0  0  0  0  0  0  0
   -5.6693   15.3298   -7.0269 C   0  0  0  0  0  0  0  0  0  0  0  0
   -6.5964   16.3511   -7.6317 C   0  0  0  0  0  0  0  0  0  0  0  0
   -6.2833   16.8455   -8.9119 C   0  0  0  0  0  0  0  0  0  0  0  0
   -7.0870   17.8042   -9.5230 C   0  0  0  0  0  0  0  0  0  0  0  0
   -8.2094   18.2779   -8.8568 C   0  0  0  0  0  0  0  0  0  0  0  0
   -9.2096   19.4572   -9.6152 Cl  0  0  0  0  0  0  0  0  0  0  0  0
   -8.5341   17.8051   -7.5843 C   0  0  0  0  0  0  0  0  0  0  0  0
   -7.7337   16.8449   -6.9513 C   0  0  0  0  0  0  0  0  0  0  0  0
 22 23  1  0  0  0
 23 24  2  0  0  0
 24 25  1  0  0  0
 25 26  2  0  0  0
 26 27  1  0  0  0
 26 28  1  0  0  0
 28 29  2  0  0  0
 29 18  1  0  0  0
 18 19  1  0  0  0
 19 20  2  0  0  0
 19 17  1  0  0  0
 17 16  1  0  0  0
 16  1  1  0  0  0
  1  2  2  0  0  0
  2  3  1  0  0  0
  3  4  2  0  0  0
  4  7  1  0  0  0
  7  8  2  0  0  0
  8  9  1  0  0  0
  9 10  2  0  0  0
 10 11  1  0  0  0
 11 12  2  0  0  0
 12 13  1  0  0  0
 13 14  2  0  0  0
 14 15  1  0  0  0
  4  5  1  0  0  0
  5  6  1  0  0  0
 29 23  1  0  0  0
  5  1  1  0  0  0
 15  7  1  0  0  0
 14  9  1  0  0  0
 18 21  1  0  0  0
M  END
> <minimizedAffinity>
-8.14411

$$$$
Molecule_6


 30 32  0  0  0  0  0  0  0  0999 V2000
   -6.3774   18.2242  -12.7064 C   0  0  0  0  0  0  0  0  0  0  0  0
   -6.7831   18.6567  -13.9823 C   0  0  0  0  0  0  0  0  0  0  0  0
   -7.7202   19.6798  -14.1169 C   0  0  0  0  0  0  0  0  0  0  0  0
   -8.2507   20.2829  -12.9823 C   0  0  0  0  0  0  0  0  0  0  0  0
   -7.8468   19.8632  -11.7118 C   0  0  0  0  0  0  0  0  0  0  0  0
   -6.9074   18.8324  -11.5442 C   0  0  0  0  0  0  0  0  0  0  0  0
   -4.2119   17.3172  -12.2311 O   0  0  0  0  0  0  0  0  0  0  0  0
   -5.3700   17.1344  -12.5799 C   0  0  0  0  0  0  0  0  0  0  0  0
   -5.9318   15.9297  -12.8540 O   0  0  0  0  0  0  0  0  0  0  0  0
   -6.1137   15.0810  -11.7110 C   0  0  0  0  0  0  0  0  0  0  0  0
   -7.6138   15.0525  -11.3961 C   0  0  0  0  0  0  0  0  0  0  0  0
   -8.1232   13.8851  -10.5496 C   0  0  0  0  0  0  0  0  0  0  0  0
   -7.3055   13.5440   -9.3033 C   0  0  0  0  0  0  0  0  0  0  0  0
   -5.8289   13.2103   -9.5277 C   0  0  0  0  0  0  0  0  0  0  0  0
   -5.5182   12.8209  -10.8831 N   0  0  0  0  0  0  0  0  0  0  0  0
   -5.5603   13.6658  -11.9650 C   0  0  0  0  0  0  0  0  0  0  0  0
   -5.1852   13.2689  -13.0665 O   0  0  0  0  0  0  0  0  0  0  0  0
   -5.1089   11.9127  -11.0710 H   0  0  0  0  0  0  0  0  0  0  0  0
   -6.5285   18.4029  -10.2523 N   0  0  0  0  0  0  0  0  0  0  0  0
   -5.5319   18.1685  -10.1899 H   0  0  0  0  0  0  0  0  0  0  0  0
   -7.2725   17.9457   -9.1513 C   0  0  0  0  0  0  0  0  0  0  0  0
   -8.5977   18.3156   -8.9066 C   0  0  0  0  0  0  0  0  0  0  0  0
   -9.2753   17.8637   -7.7672 C   0  0  0  0  0  0  0  0  0  0  0  0
   -8.6312   17.0466   -6.8358 C   0  0  0  0  0  0  0  0  0  0  0  0
   -7.3110   16.6632   -7.0741 C   0  0  0  0  0  0  0  0  0  0  0  0
   -6.6394   17.1166   -8.2152 C   0  0  0  0  0  0  0  0  0  0  0  0
   -9.5313   16.4919   -5.4028 S   0  0  0  0  0  0  0  0  0  0  0  0
   -9.2435   17.8921   -4.2996 C   0  0  0  0  0  0  0  0  0  0  0  0
  -10.3850   18.6059   -4.1226 F   0  0  0  0  0  0  0  0  0  0  0  0
   -8.3465   18.7425   -4.8633 F   0  0  0  0  0  0  0  0  0  0  0  0
  7  8  2  0  0  0
  8  9  1  0  0  0
  9 10  1  0  0  0
 10 11  1  0  0  0
 11 12  1  0  0  0
 12 13  1  0  0  0
 13 14  1  0  0  0
 14 15  1  0  0  0
 15 16  1  0  0  0
 16 17  2  0  0  0
  8  1  1  0  0  0
  1  2  2  0  0  0
  2  3  1  0  0  0
  3  4  2  0  0  0
  4  5  1  0  0  0
  5  6  2  0  0  0
  6 19  1  0  0  0
 19 21  1  0  0  0
 21 22  2  0  0  0
 22 23  1  0  0  0
 23 24  2  0  0  0
 24 27  1  0  0  0
 27 28  1  0  0  0
 28 29  1  0  0  0
 28 30  1  0  0  0
 24 25  1  0  0  0
 25 26  2  0  0  0
 16 10  1  0  0  0
  6  1  1  0  0  0
 26 21  1  0  0  0
 15 18  1  0  0  0
 19 20  1  0  0  0
M  END
> <minimizedAffinity>
-7.86579

$$$$
Molecule_7


 30 34  0  0  0  0  0  0  0  0999 V2000
   -9.3419   18.1152   -7.7906 S   0  0  0  0  0  0  0  0  0  0  0  0
   -9.3459   19.6361   -6.9434 C   0  0  0  0  0  0  0  0  0  0  0  0
   -9.1225   20.7877   -7.5463 N   0  0  0  0  0  0  0  0  0  0  0  0
   -9.3446   21.7305   -6.5919 C   0  0  0  0  0  0  0  0  0  0  0  0
   -9.7382   21.1622   -5.3992 C   0  0  0  0  0  0  0  0  0  0  0  0
   -9.7137   19.7891   -5.6057 N   0  0  0  0  0  0  0  0  0  0  0  0
   -9.9261   21.9186   -4.1266 C   0  0  0  0  0  0  0  0  0  0  0  0
   -9.9767   23.4370   -4.4061 C   0  0  0  0  0  0  0  0  0  0  0  0
   -8.9380   23.8919   -5.4470 C   0  0  0  0  0  0  0  0  0  0  0  0
   -9.1428   23.1875   -6.7991 C   0  0  0  0  0  0  0  0  0  0  0  0
   -9.9520   18.7838   -4.6286 C   0  0  0  0  0  0  0  0  0  0  0  0
   -8.9098   18.3457   -3.8028 C   0  0  0  0  0  0  0  0  0  0  0  0
   -9.1413   17.3491   -2.8518 C   0  0  0  0  0  0  0  0  0  0  0  0
  -10.4092   16.7858   -2.7223 C   0  0  0  0  0  0  0  0  0  0  0  0
  -11.4497   17.2191   -3.5417 C   0  0  0  0  0  0  0  0  0  0  0  0
  -11.2256   18.2164   -4.4934 C   0  0  0  0  0  0  0  0  0  0  0  0
   -7.6394   18.0792   -8.4800 C   0  0  0  0  0  0  0  0  0  0  0  0
   -6.9834   16.7276   -8.2146 C   0  0  0  0  0  0  0  0  0  0  0  0
   -7.5752   15.5567   -8.7224 C   0  0  0  0  0  0  0  0  0  0  0  0
   -6.9896   14.3070   -8.5079 C   0  0  0  0  0  0  0  0  0  0  0  0
   -5.8037   14.2072   -7.7847 C   0  0  0  0  0  0  0  0  0  0  0  0
   -5.1988   15.3565   -7.2811 C   0  0  0  0  0  0  0  0  0  0  0  0
   -5.7819   16.6070   -7.4959 C   0  0  0  0  0  0  0  0  0  0  0  0
   -8.5332   19.2298  -10.4593 O   0  0  0  0  0  0  0  0  0  0  0  0
   -7.6861   18.4850   -9.9667 C   0  0  0  0  0  0  0  0  0  0  0  0
   -6.6688   17.9198  -10.7268 N   0  0  0  0  0  0  0  0  0  0  0  0
   -5.8716   17.5456  -10.2054 H   0  0  0  0  0  0  0  0  0  0  0  0
   -6.4726   18.2573  -12.0997 C   0  0  0  0  0  0  0  0  0  0  0  0
   -5.1630   17.9646  -12.7790 C   0  0  0  0  0  0  0  0  0  0  0  0
   -6.3886   17.1813  -13.1483 C   0  0  0  0  0  0  0  0  0  0  0  0
 24 25  2  0  0  0
 25 26  1  0  0  0
 26 28  1  0  0  0
 28 29  1  0  0  0
 29 30  1  0  0  0
 25 17  1  0  0  0
 17  1  1  0  0  0
  1  2  1  0  0  0
  2  3  2  0  0  0
  3  4  1  0  0  0
  4  5  2  0  0  0
  5  6  1  0  0  0
  6 11  1  0  0  0
 11 12  2  0  0  0
 12 13  1  0  0  0
 13 14  2  0  0  0
 14 15  1  0  0  0
 15 16  2  0  0  0
  5  7  1  0  0  0
  7  8  1  0  0  0
  8  9  1  0  0  0
  9 10  1  0  0  0
 17 18  1  0  0  0
 18 19  2  0  0  0
 19 20  1  0  0  0
 20 21  2  0  0  0
 21 22  1  0  0  0
 22 23  2  0  0  0
 30 28  1  0  0  0
  6  2  1  0  0  0
 16 11  1  0  0  0
 23 18  1  0  0  0
 10  4  1  0  0  0
 26 27  1  0  0  0
M  END
> <minimizedAffinity>
-7.99903

$$$$
Molecule_8


 32 34  0  0  0  0  0  0  0  0999 V2000
   -8.0037   16.2727   -6.9456 N   0  0  0  0  0  0  0  0  0  0  0  0
   -8.2376   15.2006   -7.7773 C   0  0  0  0  0  0  0  0  0  0  0  0
   -9.2264   14.4727   -7.6782 O   0  0  0  0  0  0  0  0  0  0  0  0
   -7.3012   16.9469   -7.2202 H   0  0  0  0  0  0  0  0  0  0  0  0
   -8.9801   16.7052   -5.9718 C   0  0  0  0  0  0  0  0  0  0  0  0
  -10.4123   23.0817   -5.3855 C   0  0  0  0  0  0  0  0  0  0  0  0
  -10.6695   22.4380   -4.1773 C   0  0  0  0  0  0  0  0  0  0  0  0
  -10.4451   21.0622   -4.0528 C   0  0  0  0  0  0  0  0  0  0  0  0
   -9.9607   20.3087   -5.1332 C   0  0  0  0  0  0  0  0  0  0  0  0
   -9.7303   18.9264   -5.0214 C   0  0  0  0  0  0  0  0  0  0  0  0
   -9.2510   18.1806   -6.1091 C   0  0  0  0  0  0  0  0  0  0  0  0
   -8.9872   18.8369   -7.3164 C   0  0  0  0  0  0  0  0  0  0  0  0
   -9.2117   20.2093   -7.4409 C   0  0  0  0  0  0  0  0  0  0  0  0
   -9.6988   20.9576   -6.3587 C   0  0  0  0  0  0  0  0  0  0  0  0
   -9.9294   22.3390   -6.4668 C   0  0  0  0  0  0  0  0  0  0  0  0
   -9.4517   25.1358   -6.1010 C   0  0  0  0  0  0  0  0  0  0  0  0
  -10.5872   24.4142   -5.6407 O   0  0  0  0  0  0  0  0  0  0  0  0
   -7.1443   14.9524   -8.8395 C   0  0  0  0  0  0  0  0  0  0  0  0
   -7.3428   15.9533   -9.8848 N   0  0  0  0  0  0  0  0  0  0  0  0
   -6.7606   17.1960   -9.8315 C   0  0  0  0  0  0  0  0  0  0  0  0
   -6.0649   17.5866   -8.9044 O   0  0  0  0  0  0  0  0  0  0  0  0
   -7.8875   15.6643  -10.6925 H   0  0  0  0  0  0  0  0  0  0  0  0
   -7.0557   18.0707  -10.9856 C   0  0  0  0  0  0  0  0  0  0  0  0
   -7.9775   19.1151  -10.8102 C   0  0  0  0  0  0  0  0  0  0  0  0
   -8.2695   19.9747  -11.8698 C   0  0  0  0  0  0  0  0  0  0  0  0
   -7.6436   19.7962  -13.1025 C   0  0  0  0  0  0  0  0  0  0  0  0
   -6.7265   18.7571  -13.2788 C   0  0  0  0  0  0  0  0  0  0  0  0
   -6.4278   17.8902  -12.2219 C   0  0  0  0  0  0  0  0  0  0  0  0
   -5.3301   16.5948  -12.5359 Cl  0  0  0  0  0  0  0  0  0  0  0  0
   -7.1519   13.5202   -9.4243 C   0  0  0  0  0  0  0  0  0  0  0  0
   -5.7503   12.9122   -9.5392 C   0  0  0  0  0  0  0  0  0  0  0  0
   -7.8700   13.4410  -10.7731 C   0  0  0  0  0  0  0  0  0  0  0  0
 16 17  1  0  0  0
 17  6  1  0  0  0
  6  7  2  0  0  0
  7  8  1  0  0  0
  8  9  2  0  0  0
  9 10  1  0  0  0
 10 11  2  0  0  0
 11  5  1  0  0  0
  5  1  1  0  0  0
  1  2  1  0  0  0
  2  3  2  0  0  0
  2 18  1  0  0  0
 18 19  1  0  0  0
 19 20  1  0  0  0
 20 21  2  0  0  0
 20 23  1  0  0  0
 23 24  2  0  0  0
 24 25  1  0  0  0
 25 26  2  0  0  0
 26 27  1  0  0  0
 27 28  2  0  0  0
 28 29  1  0  0  0
 18 30  1  0  0  0
 30 31  1  0  0  0
 30 32  1  0  0  0
 11 12  1  0  0  0
 12 13  2  0  0  0
 13 14  1  0  0  0
 14 15  2  0  0  0
 15  6  1  0  0  0
 14  9  1  0  0  0
 28 23  1  0  0  0
  1  4  1  0  0  0
 19 22  1  0  0  0
M  END
> <minimizedAffinity>
-8.97402

$$$$
Molecule_9


 24 26  0  0  0  0  0  0  0  0999 V2000
   -6.3808   16.9114  -11.1650 C   0  0  0  0  0  0  0  0  0  0  0  0
   -6.6304   16.7216   -9.7902 C   0  0  0  0  0  0  0  0  0  0  0  0
   -7.3136   17.7206   -9.1016 C   0  0  0  0  0  0  0  0  0  0  0  0
   -7.8014   18.8430   -9.7771 C   0  0  0  0  0  0  0  0  0  0  0  0
   -7.6104   19.0245  -11.1355 C   0  0  0  0  0  0  0  0  0  0  0  0
   -8.1219   20.1284  -11.7016 N   0  0  0  0  0  0  0  0  0  0  0  0
   -7.9271   20.3225  -13.0227 C   0  0  0  0  0  0  0  0  0  0  0  0
   -7.2293   19.4472  -13.8260 C   0  0  0  0  0  0  0  0  0  0  0  0
   -6.7023   18.3042  -13.2354 C   0  0  0  0  0  0  0  0  0  0  0  0
   -6.8821   18.0549  -11.8540 C   0  0  0  0  0  0  0  0  0  0  0  0
   -4.9938   15.1400  -12.4575 N   0  0  0  0  0  0  0  0  0  0  0  0
   -5.6033   15.9430  -11.8837 C   0  0  0  0  0  0  0  0  0  0  0  0
   -6.1177   15.5698   -9.1014 N   0  0  0  0  0  0  0  0  0  0  0  0
   -5.1338   15.3056   -9.2109 H   0  0  0  0  0  0  0  0  0  0  0  0
   -7.0718   14.2328   -8.7149 S   0  0  0  0  0  0  0  0  0  0  0  0
   -6.2009   13.2479   -8.1150 O   0  0  0  0  0  0  0  0  0  0  0  0
   -8.2386   14.7027   -7.9967 O   0  0  0  0  0  0  0  0  0  0  0  0
   -7.6140   13.6109  -10.2628 C   0  0  0  0  0  0  0  0  0  0  0  0
   -8.7329   14.1735  -10.8869 C   0  0  0  0  0  0  0  0  0  0  0  0
   -9.1521   13.6747  -12.1164 C   0  0  0  0  0  0  0  0  0  0  0  0
   -8.4366   12.6308  -12.6755 C   0  0  0  0  0  0  0  0  0  0  0  0
   -7.3558   12.0708  -12.0915 N   0  0  0  0  0  0  0  0  0  0  0  0
   -6.9706   12.5627  -10.8879 C   0  0  0  0  0  0  0  0  0  0  0  0
   -5.5709   11.7623  -10.2950 Cl  0  0  0  0  0  0  0  0  0  0  0  0
 11 12  3  0  0  0
 12  1  1  0  0  0
  1  2  2  0  0  0
  2 13  1  0  0  0
 13 15  1  0  0  0
 15 16  2  0  0  0
 15 17  2  0  0  0
 15 18  1  0  0  0
 18 19  2  0  0  0
 19 20  1  0  0  0
 20 21  2  0  0  0
 21 22  1  0  0  0
 22 23  2  0  0  0
 23 24  1  0  0  0
  2  3  1  0  0  0
  3  4  2  0  0  0
  4  5  1  0  0  0
  5  6  2  0  0  0
  6  7  1  0  0  0
  7  8  2  0  0  0
  8  9  1  0  0  0
  9 10  2  0  0  0
 10  1  1  0  0  0
 23 18  1  0  0  0
 10  5  1  0  0  0
 13 14  1  0  0  0
M  END
> <minimizedAffinity>
-8.14935

$$$$
