


 26 27  0  0  0  0  0  0  0  0999 V2000
  -17.7738   18.8977  -10.6524 C   0  0  0  0  0  0  0  0  0  0  0  0
  -17.6108   17.6498  -10.1508 C   0  0  0  0  0  0  0  0  0  0  0  0
  -18.3890   17.0877   -8.9871 C   0  0  0  0  0  0  0  0  0  0  0  0
  -16.6533   16.8043  -10.6987 N   0  0  0  0  0  0  0  0  0  0  0  0
  -15.7875   17.1522  -11.7304 C   0  0  0  0  0  0  0  0  0  0  0  0
  -14.7572   16.1164  -12.1017 C   0  0  0  0  0  0  0  0  0  0  0  0
  -15.9195   18.3791  -12.2777 C   0  0  0  0  0  0  0  0  0  0  0  0
  -16.9352   19.3990  -11.8269 C   0  0  0  0  0  0  0  0  0  0  0  0
  -16.5799   15.8637  -10.3146 H   0  0  0  0  0  0  0  0  0  0  0  0
  -17.7948   19.9740  -12.9726 C   0  0  0  0  0  0  0  0  0  0  0  0
  -18.6367   19.0505  -13.6383 C   0  0  0  0  0  0  0  0  0  0  0  0
  -19.4571   19.4346  -14.6970 C   0  0  0  0  0  0  0  0  0  0  0  0
  -19.4602   20.7532  -15.1218 C   0  0  0  0  0  0  0  0  0  0  0  0
  -18.6461   21.6862  -14.4827 C   0  0  0  0  0  0  0  0  0  0  0  0
  -17.8069   21.3281  -13.4021 C   0  0  0  0  0  0  0  0  0  0  0  0
  -16.9751   22.4379  -12.7831 C   0  0  0  0  0  0  0  0  0  0  0  0
  -17.1877   23.6584  -13.3580 F   0  0  0  0  0  0  0  0  0  0  0  0
  -17.2369   22.6222  -11.4625 F   0  0  0  0  0  0  0  0  0  0  0  0
  -15.6380   22.2251  -12.8880 F   0  0  0  0  0  0  0  0  0  0  0  0
  -15.0183   18.8175  -13.3118 N   0  0  0  0  0  0  0  0  0  0  0  0
  -15.2531   18.4626  -14.4735 O   0  0  0  0  0  0  0  0  0  0  0  0
  -14.0760   19.5383  -12.9587 O   0  0  0  0  0  0  0  0  0  0  0  0
  -18.7769   19.8308  -10.0903 C   0  0  0  0  0  0  0  0  0  0  0  0
  -19.9270   19.9355  -10.4834 O   0  0  0  0  0  0  0  0  0  0  0  0
  -18.9240   20.4396   -7.8431 C   0  0  0  0  0  0  0  0  0  0  0  0
  -18.2106   20.5331   -9.0769 O   0  0  0  0  0  0  0  0  0  0  0  0
 25 26  1  0  0  0
 26 23  1  0  0  0
 23 24  2  0  0  0
 23  1  1  0  0  0
  1  2  2  0  0  0
  2  3  1  0  0  0
  2  4  1  0  0  0
  4  5  1  0  0  0
  5  6  1  0  0  0
  5  7  2  0  0  0
  7 20  1  0  0  0
 20 21  2  0  0  0
 20 22  1  0  0  0
  7  8  1  0  0  0
  8 10  1  0  0  0
 10 11  2  0  0  0
 11 12  1  0  0  0
 12 13  2  0  0  0
 13 14  1  0  0  0
 14 15  2  0  0  0
 15 16  1  0  0  0
 16 17  1  0  0  0
 16 18  1  0  0  0
 16 19  1  0  0  0
  8  1  1  0  0  0
 15 10  1  0  0  0
  4  9  1  0  0  0
M  CHG 1  20   1
M  CHG 1  22  -1
M  END
> <minimizedAffinity>
-7.14376

$$$$



 26 27  0  0  0  0  0  0  0  0999 V2000
  -18.1576   21.5117  -11.3757 C   0  0  0  0  0  0  0  0  0  0  0  0
  -17.9217   22.6746  -12.0297 C   0  0  0  0  0  0  0  0  0  0  0  0
  -17.6784   24.0013  -11.3540 C   0  0  0  0  0  0  0  0  0  0  0  0
  -17.9205   22.6981  -13.4194 N   0  0  0  0  0  0  0  0  0  0  0  0
  -18.1891   21.5998  -14.2298 C   0  0  0  0  0  0  0  0  0  0  0  0
  -18.2368   21.8721  -15.7116 C   0  0  0  0  0  0  0  0  0  0  0  0
  -18.4141   20.4124  -13.6285 C   0  0  0  0  0  0  0  0  0  0  0  0
  -18.4091   20.2094  -12.1338 C   0  0  0  0  0  0  0  0  0  0  0  0
  -17.7104   23.5843  -13.8756 H   0  0  0  0  0  0  0  0  0  0  0  0
  -17.4964   19.0577  -11.6623 C   0  0  0  0  0  0  0  0  0  0  0  0
  -16.2477   18.9480  -12.3208 C   0  0  0  0  0  0  0  0  0  0  0  0
  -15.3328   17.9473  -12.0000 C   0  0  0  0  0  0  0  0  0  0  0  0
  -15.6391   17.0262  -11.0114 C   0  0  0  0  0  0  0  0  0  0  0  0
  -16.8582   17.1116  -10.3421 C   0  0  0  0  0  0  0  0  0  0  0  0
  -17.8047   18.1190  -10.6414 C   0  0  0  0  0  0  0  0  0  0  0  0
  -19.0917   18.1118   -9.8349 C   0  0  0  0  0  0  0  0  0  0  0  0
  -18.9244   18.5293   -8.5453 F   0  0  0  0  0  0  0  0  0  0  0  0
  -20.0434   18.9343  -10.3490 F   0  0  0  0  0  0  0  0  0  0  0  0
  -19.6543   16.8796   -9.7380 F   0  0  0  0  0  0  0  0  0  0  0  0
  -18.7505   19.2508  -14.4103 N   0  0  0  0  0  0  0  0  0  0  0  0
  -17.8572   18.7323  -15.0913 O   0  0  0  0  0  0  0  0  0  0  0  0
  -19.9168   18.8443  -14.3276 O   0  0  0  0  0  0  0  0  0  0  0  0
  -18.1756   21.4478   -9.8965 C   0  0  0  0  0  0  0  0  0  0  0  0
  -17.2277   21.1188   -9.2026 O   0  0  0  0  0  0  0  0  0  0  0  0
  -19.7175   21.3179   -8.1507 C   0  0  0  0  0  0  0  0  0  0  0  0
  -19.4030   21.8170   -9.4513 O   0  0  0  0  0  0  0  0  0  0  0  0
 25 26  1  0  0  0
 26 23  1  0  0  0
 23 24  2  0  0  0
 23  1  1  0  0  0
  1  2  2  0  0  0
  2  3  1  0  0  0
  2  4  1  0  0  0
  4  5  1  0  0  0
  5  6  1  0  0  0
  5  7  2  0  0  0
  7 20  1  0  0  0
 20 21  2  0  0  0
 20 22  1  0  0  0
  7  8  1  0  0  0
  8 10  1  0  0  0
 10 11  2  0  0  0
 11 12  1  0  0  0
 12 13  2  0  0  0
 13 14  1  0  0  0
 14 15  2  0  0  0
 15 16  1  0  0  0
 16 17  1  0  0  0
 16 18  1  0  0  0
 16 19  1  0  0  0
  8  1  1  0  0  0
 15 10  1  0  0  0
  4  9  1  0  0  0
M  CHG 1  20   1
M  CHG 1  22  -1
M  END
> <minimizedAffinity>
-6.62435

$$$$



 26 27  0  0  0  0  0  0  0  0999 V2000
  -15.1377   18.9038  -15.3098 C   0  0  0  0  0  0  0  0  0  0  0  0
  -14.6985   18.0828  -16.2940 C   0  0  0  0  0  0  0  0  0  0  0  0
  -13.8686   16.8437  -16.0668 C   0  0  0  0  0  0  0  0  0  0  0  0
  -14.9869   18.3787  -17.6211 N   0  0  0  0  0  0  0  0  0  0  0  0
  -15.6797   19.5070  -18.0479 C   0  0  0  0  0  0  0  0  0  0  0  0
  -15.7913   19.6844  -19.5407 C   0  0  0  0  0  0  0  0  0  0  0  0
  -16.1543   20.3493  -17.1060 C   0  0  0  0  0  0  0  0  0  0  0  0
  -15.9638   20.1502  -15.6230 C   0  0  0  0  0  0  0  0  0  0  0  0
  -14.6651   17.7228  -18.3308 H   0  0  0  0  0  0  0  0  0  0  0  0
  -17.2736   20.2190  -14.8096 C   0  0  0  0  0  0  0  0  0  0  0  0
  -18.2115   19.1877  -15.0580 C   0  0  0  0  0  0  0  0  0  0  0  0
  -19.4385   19.1357  -14.3998 C   0  0  0  0  0  0  0  0  0  0  0  0
  -19.7645   20.1133  -13.4737 C   0  0  0  0  0  0  0  0  0  0  0  0
  -18.8596   21.1380  -13.2042 C   0  0  0  0  0  0  0  0  0  0  0  0
  -17.6046   21.2147  -13.8518 C   0  0  0  0  0  0  0  0  0  0  0  0
  -16.7029   22.3738  -13.4642 C   0  0  0  0  0  0  0  0  0  0  0  0
  -15.4143   21.9967  -13.2142 F   0  0  0  0  0  0  0  0  0  0  0  0
  -16.6092   23.3196  -14.4354 F   0  0  0  0  0  0  0  0  0  0  0  0
  -17.1097   23.0132  -12.3373 F   0  0  0  0  0  0  0  0  0  0  0  0
  -16.8324   21.5615  -17.4862 N   0  0  0  0  0  0  0  0  0  0  0  0
  -18.0327   21.4872  -17.7766 O   0  0  0  0  0  0  0  0  0  0  0  0
  -16.1597   22.6006  -17.4771 O   0  0  0  0  0  0  0  0  0  0  0  0
  -14.8436   18.6274  -13.8851 C   0  0  0  0  0  0  0  0  0  0  0  0
  -14.0502   19.2555  -13.2038 O   0  0  0  0  0  0  0  0  0  0  0  0
  -16.2136   17.7786  -12.1984 C   0  0  0  0  0  0  0  0  0  0  0  0
  -15.5984   17.5784  -13.4717 O   0  0  0  0  0  0  0  0  0  0  0  0
 25 26  1  0  0  0
 26 23  1  0  0  0
 23 24  2  0  0  0
 23  1  1  0  0  0
  1  2  2  0  0  0
  2  3  1  0  0  0
  2  4  1  0  0  0
  4  5  1  0  0  0
  5  6  1  0  0  0
  5  7  2  0  0  0
  7 20  1  0  0  0
 20 21  2  0  0  0
 20 22  1  0  0  0
  7  8  1  0  0  0
  8 10  1  0  0  0
 10 11  2  0  0  0
 11 12  1  0  0  0
 12 13  2  0  0  0
 13 14  1  0  0  0
 14 15  2  0  0  0
 15 16  1  0  0  0
 16 17  1  0  0  0
 16 18  1  0  0  0
 16 19  1  0  0  0
  8  1  1  0  0  0
 15 10  1  0  0  0
  4  9  1  0  0  0
M  CHG 1  20   1
M  CHG 1  22  -1
M  END
> <minimizedAffinity>
-6.53979

$$$$



 26 27  0  0  0  0  0  0  0  0999 V2000
  -17.6541   21.0542  -11.0158 C   0  0  0  0  0  0  0  0  0  0  0  0
  -18.0093   20.0507  -10.1778 C   0  0  0  0  0  0  0  0  0  0  0  0
  -18.9290   20.2115   -8.9929 C   0  0  0  0  0  0  0  0  0  0  0  0
  -17.4937   18.7744  -10.3702 N   0  0  0  0  0  0  0  0  0  0  0  0
  -16.5797   18.4310  -11.3611 C   0  0  0  0  0  0  0  0  0  0  0  0
  -16.0727   17.0119  -11.3249 C   0  0  0  0  0  0  0  0  0  0  0  0
  -16.2057   19.3905  -12.2338 C   0  0  0  0  0  0  0  0  0  0  0  0
  -16.7045   20.8133  -12.1881 C   0  0  0  0  0  0  0  0  0  0  0  0
  -17.8063   18.0395   -9.7379 H   0  0  0  0  0  0  0  0  0  0  0  0
  -17.2721   21.3202  -13.5308 C   0  0  0  0  0  0  0  0  0  0  0  0
  -16.5277   22.3397  -14.1722 C   0  0  0  0  0  0  0  0  0  0  0  0
  -16.9332   22.8942  -15.3845 C   0  0  0  0  0  0  0  0  0  0  0  0
  -18.0951   22.4460  -15.9916 C   0  0  0  0  0  0  0  0  0  0  0  0
  -18.8461   21.4401  -15.3870 C   0  0  0  0  0  0  0  0  0  0  0  0
  -18.4576   20.8541  -14.1598 C   0  0  0  0  0  0  0  0  0  0  0  0
  -19.3549   19.7599  -13.6081 C   0  0  0  0  0  0  0  0  0  0  0  0
  -20.3993   19.4501  -14.4319 F   0  0  0  0  0  0  0  0  0  0  0  0
  -18.7001   18.5850  -13.4154 F   0  0  0  0  0  0  0  0  0  0  0  0
  -19.9258   20.0859  -12.4198 F   0  0  0  0  0  0  0  0  0  0  0  0
  -15.2224   19.1111  -13.2481 N   0  0  0  0  0  0  0  0  0  0  0  0
  -14.0602   19.4843  -13.0467 O   0  0  0  0  0  0  0  0  0  0  0  0
  -15.6152   18.4967  -14.2483 O   0  0  0  0  0  0  0  0  0  0  0  0
  -18.1751   22.4289  -10.8386 C   0  0  0  0  0  0  0  0  0  0  0  0
  -19.3545   22.7156  -10.7158 O   0  0  0  0  0  0  0  0  0  0  0  0
  -17.3990   24.5185  -11.5268 C   0  0  0  0  0  0  0  0  0  0  0  0
  -17.1349   23.3000  -10.8302 O   0  0  0  0  0  0  0  0  0  0  0  0
 25 26  1  0  0  0
 26 23  1  0  0  0
 23 24  2  0  0  0
 23  1  1  0  0  0
  1  2  2  0  0  0
  2  3  1  0  0  0
  2  4  1  0  0  0
  4  5  1  0  0  0
  5  6  1  0  0  0
  5  7  2  0  0  0
  7 20  1  0  0  0
 20 21  2  0  0  0
 20 22  1  0  0  0
  7  8  1  0  0  0
  8 10  1  0  0  0
 10 11  2  0  0  0
 11 12  1  0  0  0
 12 13  2  0  0  0
 13 14  1  0  0  0
 14 15  2  0  0  0
 15 16  1  0  0  0
 16 17  1  0  0  0
 16 18  1  0  0  0
 16 19  1  0  0  0
  8  1  1  0  0  0
 15 10  1  0  0  0
  4  9  1  0  0  0
M  CHG 1  20   1
M  CHG 1  22  -1
M  END
> <minimizedAffinity>
-6.24267

$$$$



 26 27  0  0  0  0  0  0  0  0999 V2000
  -18.1384   21.7164  -11.7388 C   0  0  0  0  0  0  0  0  0  0  0  0
  -17.8547   22.8337  -12.4506 C   0  0  0  0  0  0  0  0  0  0  0  0
  -17.5765   24.1865  -11.8436 C   0  0  0  0  0  0  0  0  0  0  0  0
  -17.8337   22.7818  -13.8394 N   0  0  0  0  0  0  0  0  0  0  0  0
  -18.1277   21.6505  -14.5937 C   0  0  0  0  0  0  0  0  0  0  0  0
  -18.1458   21.8434  -16.0886 C   0  0  0  0  0  0  0  0  0  0  0  0
  -18.4004   20.5055  -13.9329 C   0  0  0  0  0  0  0  0  0  0  0  0
  -18.4229   20.3838  -12.4296 C   0  0  0  0  0  0  0  0  0  0  0  0
  -17.5878   23.6346  -14.3392 H   0  0  0  0  0  0  0  0  0  0  0  0
  -17.5558   19.2301  -11.8827 C   0  0  0  0  0  0  0  0  0  0  0  0
  -18.2109   18.3189  -11.0194 C   0  0  0  0  0  0  0  0  0  0  0  0
  -17.5427   17.2381  -10.4475 C   0  0  0  0  0  0  0  0  0  0  0  0
  -16.1998   17.0362  -10.7216 C   0  0  0  0  0  0  0  0  0  0  0  0
  -15.5293   17.9133  -11.5718 C   0  0  0  0  0  0  0  0  0  0  0  0
  -16.1814   19.0158  -12.1715 C   0  0  0  0  0  0  0  0  0  0  0  0
  -15.3443   19.8924  -13.0868 C   0  0  0  0  0  0  0  0  0  0  0  0
  -14.0085   19.6136  -13.0300 F   0  0  0  0  0  0  0  0  0  0  0  0
  -15.6752   19.7571  -14.3977 F   0  0  0  0  0  0  0  0  0  0  0  0
  -15.4427   21.2152  -12.7959 F   0  0  0  0  0  0  0  0  0  0  0  0
  -18.7648   19.3148  -14.6563 N   0  0  0  0  0  0  0  0  0  0  0  0
  -17.8966   18.7691  -15.3485 O   0  0  0  0  0  0  0  0  0  0  0  0
  -19.9272   18.9132  -14.5158 O   0  0  0  0  0  0  0  0  0  0  0  0
  -18.1789   21.7334  -10.2587 C   0  0  0  0  0  0  0  0  0  0  0  0
  -17.2195   21.5274   -9.5339 O   0  0  0  0  0  0  0  0  0  0  0  0
  -19.9145   21.1704   -8.8051 C   0  0  0  0  0  0  0  0  0  0  0  0
  -19.4418   22.0183   -9.8527 O   0  0  0  0  0  0  0  0  0  0  0  0
 25 26  1  0  0  0
 26 23  1  0  0  0
 23 24  2  0  0  0
 23  1  1  0  0  0
  1  2  2  0  0  0
  2  3  1  0  0  0
  2  4  1  0  0  0
  4  5  1  0  0  0
  5  6  1  0  0  0
  5  7  2  0  0  0
  7 20  1  0  0  0
 20 21  2  0  0  0
 20 22  1  0  0  0
  7  8  1  0  0  0
  8 10  1  0  0  0
 10 11  2  0  0  0
 11 12  1  0  0  0
 12 13  2  0  0  0
 13 14  1  0  0  0
 14 15  2  0  0  0
 15 16  1  0  0  0
 16 17  1  0  0  0
 16 18  1  0  0  0
 16 19  1  0  0  0
  8  1  1  0  0  0
 15 10  1  0  0  0
  4  9  1  0  0  0
M  CHG 1  20   1
M  CHG 1  22  -1
M  END
> <minimizedAffinity>
-6.06580

$$$$



 26 27  0  0  0  0  0  0  0  0999 V2000
  -18.0437   20.7608  -11.0081 C   0  0  0  0  0  0  0  0  0  0  0  0
  -18.8706   20.4914   -9.9693 C   0  0  0  0  0  0  0  0  0  0  0  0
  -19.8128   21.4906   -9.3451 C   0  0  0  0  0  0  0  0  0  0  0  0
  -18.8646   19.2275   -9.3909 N   0  0  0  0  0  0  0  0  0  0  0  0
  -18.0249   18.1863   -9.7729 C   0  0  0  0  0  0  0  0  0  0  0  0
  -18.1135   16.9316   -8.9421 C   0  0  0  0  0  0  0  0  0  0  0  0
  -17.1930   18.3969  -10.8148 C   0  0  0  0  0  0  0  0  0  0  0  0
  -17.1069   19.6961  -11.5763 C   0  0  0  0  0  0  0  0  0  0  0  0
  -19.5207   19.0537   -8.6314 H   0  0  0  0  0  0  0  0  0  0  0  0
  -17.2429   19.5349  -13.1052 C   0  0  0  0  0  0  0  0  0  0  0  0
  -18.5353   19.2049  -13.5804 C   0  0  0  0  0  0  0  0  0  0  0  0
  -18.7948   19.0202  -14.9369 C   0  0  0  0  0  0  0  0  0  0  0  0
  -17.7700   19.1597  -15.8586 C   0  0  0  0  0  0  0  0  0  0  0  0
  -16.4885   19.4891  -15.4216 C   0  0  0  0  0  0  0  0  0  0  0  0
  -16.1953   19.6882  -14.0525 C   0  0  0  0  0  0  0  0  0  0  0  0
  -14.7628   20.0534  -13.7042 C   0  0  0  0  0  0  0  0  0  0  0  0
  -14.6377   21.3045  -13.1710 F   0  0  0  0  0  0  0  0  0  0  0  0
  -14.2140   19.2220  -12.7801 F   0  0  0  0  0  0  0  0  0  0  0  0
  -13.9325   20.0418  -14.7788 F   0  0  0  0  0  0  0  0  0  0  0  0
  -16.2622   17.3768  -11.2231 N   0  0  0  0  0  0  0  0  0  0  0  0
  -15.2107   17.2617  -10.5815 O   0  0  0  0  0  0  0  0  0  0  0  0
  -16.5960   16.6731  -12.1852 O   0  0  0  0  0  0  0  0  0  0  0  0
  -18.0147   22.0972  -11.6453 C   0  0  0  0  0  0  0  0  0  0  0  0
  -18.4434   22.3461  -12.7600 O   0  0  0  0  0  0  0  0  0  0  0  0
  -17.2523   24.2825  -11.3530 C   0  0  0  0  0  0  0  0  0  0  0  0
  -17.4455   22.9840  -10.7906 O   0  0  0  0  0  0  0  0  0  0  0  0
 25 26  1  0  0  0
 26 23  1  0  0  0
 23 24  2  0  0  0
 23  1  1  0  0  0
  1  2  2  0  0  0
  2  3  1  0  0  0
  2  4  1  0  0  0
  4  5  1  0  0  0
  5  6  1  0  0  0
  5  7  2  0  0  0
  7 20  1  0  0  0
 20 21  2  0  0  0
 20 22  1  0  0  0
  7  8  1  0  0  0
  8 10  1  0  0  0
 10 11  2  0  0  0
 11 12  1  0  0  0
 12 13  2  0  0  0
 13 14  1  0  0  0
 14 15  2  0  0  0
 15 16  1  0  0  0
 16 17  1  0  0  0
 16 18  1  0  0  0
 16 19  1  0  0  0
  8  1  1  0  0  0
 15 10  1  0  0  0
  4  9  1  0  0  0
M  CHG 1  20   1
M  CHG 1  22  -1
M  END
> <minimizedAffinity>
-6.06045

$$$$



 26 27  0  0  0  0  0  0  0  0999 V2000
  -16.2129   17.6938  -12.3001 C   0  0  0  0  0  0  0  0  0  0  0  0
  -16.3108   17.4094  -10.9791 C   0  0  0  0  0  0  0  0  0  0  0  0
  -15.4074   16.4527  -10.2413 C   0  0  0  0  0  0  0  0  0  0  0  0
  -17.3147   17.9969  -10.2181 N   0  0  0  0  0  0  0  0  0  0  0  0
  -18.2892   18.8536  -10.7195 C   0  0  0  0  0  0  0  0  0  0  0  0
  -19.3449   19.2947   -9.7381 C   0  0  0  0  0  0  0  0  0  0  0  0
  -18.2268   19.1832  -12.0270 C   0  0  0  0  0  0  0  0  0  0  0  0
  -17.1769   18.6657  -12.9783 C   0  0  0  0  0  0  0  0  0  0  0  0
  -17.3386   17.7817   -9.2228 H   0  0  0  0  0  0  0  0  0  0  0  0
  -16.4502   19.7733  -13.7702 C   0  0  0  0  0  0  0  0  0  0  0  0
  -15.8433   20.7914  -12.9957 C   0  0  0  0  0  0  0  0  0  0  0  0
  -15.1638   21.8562  -13.5840 C   0  0  0  0  0  0  0  0  0  0  0  0
  -15.0711   21.9349  -14.9641 C   0  0  0  0  0  0  0  0  0  0  0  0
  -15.6539   20.9450  -15.7527 C   0  0  0  0  0  0  0  0  0  0  0  0
  -16.3451   19.8494  -15.1850 C   0  0  0  0  0  0  0  0  0  0  0  0
  -16.9273   18.8315  -16.1503 C   0  0  0  0  0  0  0  0  0  0  0  0
  -16.8910   19.2391  -17.4533 F   0  0  0  0  0  0  0  0  0  0  0  0
  -16.2623   17.6466  -16.1350 F   0  0  0  0  0  0  0  0  0  0  0  0
  -18.2323   18.5478  -15.9042 F   0  0  0  0  0  0  0  0  0  0  0  0
  -19.2376   20.0225  -12.6169 N   0  0  0  0  0  0  0  0  0  0  0  0
  -20.0273   19.5040  -13.4156 O   0  0  0  0  0  0  0  0  0  0  0  0
  -19.2505   21.2086  -12.2631 O   0  0  0  0  0  0  0  0  0  0  0  0
  -15.1629   17.0816  -13.1459 C   0  0  0  0  0  0  0  0  0  0  0  0
  -14.1346   17.6396  -13.4915 O   0  0  0  0  0  0  0  0  0  0  0  0
  -14.4449   14.8851  -13.4657 C   0  0  0  0  0  0  0  0  0  0  0  0
  -15.5299   15.8138  -13.4607 O   0  0  0  0  0  0  0  0  0  0  0  0
 25 26  1  0  0  0
 26 23  1  0  0  0
 23 24  2  0  0  0
 23  1  1  0  0  0
  1  2  2  0  0  0
  2  3  1  0  0  0
  2  4  1  0  0  0
  4  5  1  0  0  0
  5  6  1  0  0  0
  5  7  2  0  0  0
  7 20  1  0  0  0
 20 21  2  0  0  0
 20 22  1  0  0  0
  7  8  1  0  0  0
  8 10  1  0  0  0
 10 11  2  0  0  0
 11 12  1  0  0  0
 12 13  2  0  0  0
 13 14  1  0  0  0
 14 15  2  0  0  0
 15 16  1  0  0  0
 16 17  1  0  0  0
 16 18  1  0  0  0
 16 19  1  0  0  0
  8  1  1  0  0  0
 15 10  1  0  0  0
  4  9  1  0  0  0
M  CHG 1  20   1
M  CHG 1  22  -1
M  END
> <minimizedAffinity>
-5.93452

$$$$



 26 27  0  0  0  0  0  0  0  0999 V2000
  -15.8373   17.4798  -13.6091 C   0  0  0  0  0  0  0  0  0  0  0  0
  -15.2986   16.6403  -12.6923 C   0  0  0  0  0  0  0  0  0  0  0  0
  -14.3349   15.5257  -13.0157 C   0  0  0  0  0  0  0  0  0  0  0  0
  -15.6505   16.7615  -11.3531 N   0  0  0  0  0  0  0  0  0  0  0  0
  -16.5718   17.6780  -10.8567 C   0  0  0  0  0  0  0  0  0  0  0  0
  -16.8815   17.5679   -9.3856 C   0  0  0  0  0  0  0  0  0  0  0  0
  -17.1254   18.5496  -11.7262 C   0  0  0  0  0  0  0  0  0  0  0  0
  -16.8190   18.5776  -13.2028 C   0  0  0  0  0  0  0  0  0  0  0  0
  -15.2028   16.1319  -10.6893 H   0  0  0  0  0  0  0  0  0  0  0  0
  -16.4110   19.9694  -13.7305 C   0  0  0  0  0  0  0  0  0  0  0  0
  -15.1918   20.4878  -13.2308 C   0  0  0  0  0  0  0  0  0  0  0  0
  -14.7113   21.7375  -13.6166 C   0  0  0  0  0  0  0  0  0  0  0  0
  -15.4356   22.5063  -14.5132 C   0  0  0  0  0  0  0  0  0  0  0  0
  -16.6366   22.0205  -15.0262 C   0  0  0  0  0  0  0  0  0  0  0  0
  -17.1473   20.7541  -14.6580 C   0  0  0  0  0  0  0  0  0  0  0  0
  -18.4609   20.3334  -15.2939 C   0  0  0  0  0  0  0  0  0  0  0  0
  -19.5410   20.5223  -14.4797 F   0  0  0  0  0  0  0  0  0  0  0  0
  -18.7485   21.0292  -16.4249 F   0  0  0  0  0  0  0  0  0  0  0  0
  -18.4951   19.0176  -15.6280 F   0  0  0  0  0  0  0  0  0  0  0  0
  -18.1253   19.4865  -11.2831 N   0  0  0  0  0  0  0  0  0  0  0  0
  -17.7508   20.4660  -10.6267 O   0  0  0  0  0  0  0  0  0  0  0  0
  -19.2947   19.2472  -11.6107 O   0  0  0  0  0  0  0  0  0  0  0  0
  -15.4942   17.3768  -15.0459 C   0  0  0  0  0  0  0  0  0  0  0  0
  -16.1803   16.8200  -15.8870 O   0  0  0  0  0  0  0  0  0  0  0  0
  -14.2723   18.7538  -16.4787 C   0  0  0  0  0  0  0  0  0  0  0  0
  -14.3100   18.0017  -15.2651 O   0  0  0  0  0  0  0  0  0  0  0  0
 25 26  1  0  0  0
 26 23  1  0  0  0
 23 24  2  0  0  0
 23  1  1  0  0  0
  1  2  2  0  0  0
  2  3  1  0  0  0
  2  4  1  0  0  0
  4  5  1  0  0  0
  5  6  1  0  0  0
  5  7  2  0  0  0
  7 20  1  0  0  0
 20 21  2  0  0  0
 20 22  1  0  0  0
  7  8  1  0  0  0
  8 10  1  0  0  0
 10 11  2  0  0  0
 11 12  1  0  0  0
 12 13  2  0  0  0
 13 14  1  0  0  0
 14 15  2  0  0  0
 15 16  1  0  0  0
 16 17  1  0  0  0
 16 18  1  0  0  0
 16 19  1  0  0  0
  8  1  1  0  0  0
 15 10  1  0  0  0
  4  9  1  0  0  0
M  CHG 1  20   1
M  CHG 1  22  -1
M  END
> <minimizedAffinity>
-5.86940

$$$$



 26 27  0  0  0  0  0  0  0  0999 V2000
  -16.7387   18.2164  -11.3069 C   0  0  0  0  0  0  0  0  0  0  0  0
  -16.4146   16.9182  -11.0943 C   0  0  0  0  0  0  0  0  0  0  0  0
  -16.7893   16.1344   -9.8609 C   0  0  0  0  0  0  0  0  0  0  0  0
  -15.6634   16.2296  -12.0394 N   0  0  0  0  0  0  0  0  0  0  0  0
  -15.1622   16.7872  -13.2112 C   0  0  0  0  0  0  0  0  0  0  0  0
  -14.2850   15.8880  -14.0445 C   0  0  0  0  0  0  0  0  0  0  0  0
  -15.4706   18.0736  -13.4796 C   0  0  0  0  0  0  0  0  0  0  0  0
  -16.3092   18.9456  -12.5788 C   0  0  0  0  0  0  0  0  0  0  0  0
  -15.4643   15.2472  -11.8585 H   0  0  0  0  0  0  0  0  0  0  0  0
  -17.4869   19.6372  -13.2977 C   0  0  0  0  0  0  0  0  0  0  0  0
  -18.5963   18.8121  -13.6030 C   0  0  0  0  0  0  0  0  0  0  0  0
  -19.7215   19.3065  -14.2596 C   0  0  0  0  0  0  0  0  0  0  0  0
  -19.7710   20.6404  -14.6306 C   0  0  0  0  0  0  0  0  0  0  0  0
  -18.6965   21.4783  -14.3390 C   0  0  0  0  0  0  0  0  0  0  0  0
  -17.5434   21.0073  -13.6691 C   0  0  0  0  0  0  0  0  0  0  0  0
  -16.4448   22.0210  -13.4002 C   0  0  0  0  0  0  0  0  0  0  0  0
  -16.8223   23.0126  -12.5402 F   0  0  0  0  0  0  0  0  0  0  0  0
  -15.3406   21.4675  -12.8339 F   0  0  0  0  0  0  0  0  0  0  0  0
  -16.0259   22.6643  -14.5204 F   0  0  0  0  0  0  0  0  0  0  0  0
  -14.9376   18.7229  -14.6493 N   0  0  0  0  0  0  0  0  0  0  0  0
  -14.0268   19.5451  -14.4910 O   0  0  0  0  0  0  0  0  0  0  0  0
  -15.4248   18.3930  -15.7383 O   0  0  0  0  0  0  0  0  0  0  0  0
  -17.5299   18.9862  -10.3200 C   0  0  0  0  0  0  0  0  0  0  0  0
  -17.0988   19.9118   -9.6523 O   0  0  0  0  0  0  0  0  0  0  0  0
  -19.3512   18.4219   -8.9759 C   0  0  0  0  0  0  0  0  0  0  0  0
  -18.7960   18.4994  -10.2895 O   0  0  0  0  0  0  0  0  0  0  0  0
 25 26  1  0  0  0
 26 23  1  0  0  0
 23 24  2  0  0  0
 23  1  1  0  0  0
  1  2  2  0  0  0
  2  3  1  0  0  0
  2  4  1  0  0  0
  4  5  1  0  0  0
  5  6  1  0  0  0
  5  7  2  0  0  0
  7 20  1  0  0  0
 20 21  2  0  0  0
 20 22  1  0  0  0
  7  8  1  0  0  0
  8 10  1  0  0  0
 10 11  2  0  0  0
 11 12  1  0  0  0
 12 13  2  0  0  0
 13 14  1  0  0  0
 14 15  2  0  0  0
 15 16  1  0  0  0
 16 17  1  0  0  0
 16 18  1  0  0  0
 16 19  1  0  0  0
  8  1  1  0  0  0
 15 10  1  0  0  0
  4  9  1  0  0  0
M  CHG 1  20   1
M  CHG 1  22  -1
M  END
> <minimizedAffinity>
-5.79125

$$$$
